10

F 0.0275999981 0.0175077310 0.0031999201
C -0.0272611585 1.3371712442 0.0108541553
C -1.1918231063 2.0153413544 0.0304671873
F -2.3643644636 1.4221292590 0.0434474812
C -1.1853576112 3.4758971341 0.0381250414
O -2.1509050204 4.1814201336 0.0545774387
O 0.0817764003 4.0592677334 0.0234344737
N 1.2731838260 3.3628658550 0.0033647279
C 1.1997544199 2.0761782503 -0.0022221012
H 2.1477313458 1.5485116050 -0.0180620243