15

C -0.0175345763 1.5204127038 0.0513533072
C -0.0035417108 0.0258076434 -0.0674600061
C -0.0347813827 -0.6634347683 -1.2417191997
C -0.0160736658 -2.0882966740 -1.2180109245
C 0.0323353408 -2.7563019383 -0.0392387157
F 0.0505622705 -4.0844906657 0.0077011036
C 0.0675965439 -2.0806014136 1.2508090041
O 0.1113859101 -2.6049917086 2.3487288220
N 0.0451159208 -0.6852542677 1.1046494813
H 0.8818984996 1.8869722528 0.5601581376
H -0.0614189055 1.9817273151 -0.9363903748
H -0.8837801728 1.8650495012 0.6284342214
H -0.0733809655 -0.1305873175 -2.1817855745
H -0.0403974389 -2.6547450361 -2.1427796223
H 0.0688646326 -0.1931979166 1.9884721904