10

F 0.0595004181 0.0581076299 0.0023464328
C -0.0224733245 1.3710653646 0.0107114787
C -1.2303755620 1.9835739429 0.0306679994
C -1.2861002716 3.4198215354 0.0392150166
O -2.2245140270 4.1555863374 0.0563487580
O 0.0237330018 4.0307791557 0.0248229462
C 1.1189085182 3.2864923715 0.0057005077
N 1.1834742320 2.0016177979 -0.0023401962
H -2.1603276517 1.4333796417 0.0404610707
H 2.0249627667 3.8858890031 -0.0033285840