16

O 0.0745322001 0.9582697215 -1.1307083274
C -0.2176647390 0.1419263744 -0.0161891385
C -1.6953890126 -0.2087722999 0.0389478963
O -1.9662132274 -0.9455242456 -1.1576220659
C -3.3169774371 -1.1074897419 -1.4886284387
C -3.8465850922 0.0535608331 -2.3278191541
F -3.0821581407 0.2616400968 -3.4052059719
F -5.0927965472 -0.2153466160 -2.7438141874
F -3.8872918751 1.2037252456 -1.6354522267
H -0.3159631625 0.5175320165 -1.8946981139
H 0.3716249226 -0.7889702224 -0.0274293222
H 0.0591916188 0.7042467238 0.8815467559
H -1.9279472371 -0.8237592928 0.9215220503
H -2.2945431083 0.7072423652 0.0708364469
H -3.4071774735 -2.0112787579 -2.0990609379
H -3.9627081788 -1.2160558602 -0.6071745048