14

N -0.0460871722 1.4330481355 -0.1226796435
C -0.0523889260 0.0479493950 -0.0552182402
C -1.2087350593 -0.7207841374 0.0037973296
C -1.0904677572 -2.1082204109 0.0067502059
F -2.1994882847 -2.8558940296 0.0629502113
C 0.1487632567 -2.7123000985 -0.0438915817
N 1.2702117674 -1.9730972128 -0.0950362498
C 1.1693252624 -0.6646079191 -0.1006369710
O 2.3074484651 0.0813994306 -0.1455392936
H 0.8332359898 1.8548035895 0.1372197598
H -0.8440033442 1.8955305744 0.2862262972
H -2.1907425161 -0.2624970102 0.0429844164
H 0.2478049462 -3.7919472844 -0.0400327024
H 3.0396192421 -0.5491598420 -0.1566337180