16

C -0.0249838154 1.4831890275 0.0471275912
C 0.0040667916 -0.0214953517 -0.0169514734
C 0.1579207131 -0.6879286765 -1.2301147619
C 0.1734441908 -2.0778372271 -1.1914663681
F 0.3220741997 -2.7587512076 -2.3283954218
C 0.0379553534 -2.7687175602 -0.0069061499
C -0.1121971135 -1.9973238964 1.1595011951
N -0.3059695788 -2.6010300594 2.3853316683
N -0.1232545666 -0.6605695455 1.1543371209
H 0.1212454562 1.9346973881 -0.9367094620
H -0.9829438728 1.8261827612 0.4515541433
H 0.7545088856 1.8484291780 0.7230934662
H 0.2664558905 -0.1615303336 -2.1690592174
H 0.0410918031 -3.8513858342 0.0093588969
H 0.0628086347 -3.5307830353 2.5051886074
H -0.1584080116 -1.9836406472 3.1695068253