13

C -0.0166169500 1.4661321841 0.0565608926
C -0.0025838871 -0.0213189613 -0.0647190589
N -0.0964032063 -0.6130076053 -1.2106676191
C -0.0707071972 -1.9689261123 -1.1742716233
F -0.1686723321 -2.5359906009 -2.3600233934
C 0.0426057531 -2.7315708396 -0.0606610575
C 0.1470788336 -2.0771134184 1.2129034406
O 0.2542671519 -2.5370260869 2.3100057926
O 0.1139289862 -0.6423281891 1.1100016573
H 0.9054144578 1.8101007771 0.5354828003
H -0.1143875415 1.9152643263 -0.9305095660
H -0.8480215351 1.7803260153 0.6952980136
H 0.0576077169 -3.8111696390 -0.0921670186