12

O 0.0841599892 1.3779919614 -0.0753455843
C 0.0565286298 0.0232582060 -0.0644043876
C 0.0221019216 -0.7107857737 -1.2409461884
C -0.0050774491 -2.1035988888 -1.1593960982
C 0.0031799835 -2.7089834752 0.0895832931
N 0.0363670905 -2.0051080657 1.2324391028
C 0.0611681926 -0.7083391965 1.1305837200
F 0.0949488880 0.0142475181 2.2657134032
H 0.1052991241 1.6800295650 0.8414248368
H 0.0171039371 -0.1893231210 -2.1912253239
H -0.0322893095 -2.7070686567 -2.0591573115
H -0.0172623879 -3.7891399128 0.1917855179