16

C -0.0009042857 1.5250083264 -0.0046059464
C 0.0054282252 0.0212133812 -0.0140240404
C -0.0417170741 -0.7027643240 -1.1987319804
C -0.0130035889 -2.0917491903 -1.1325893557
F -0.0561797792 -2.7858780708 -2.2729650702
N 0.0522660279 -2.7863914911 -0.0240220833
C 0.0888775815 -2.0958896093 1.1196166702
C 0.0719896579 -0.7024206972 1.1952624259
N 0.1896643545 -0.0407503238 2.4242054471
H 0.8563268426 1.9162326191 0.5553781572
H 0.0347031585 1.9285435765 -1.0186722472
H -0.9050974803 1.9225199519 0.4763126877
H -0.0936297962 -0.2056836548 -2.1604240806
H 0.1396968830 -2.6844352893 2.0342226738
H 0.0029471922 -0.6326199696 3.2222282092
H -0.3374034591 0.8187382750 2.4925464430