15

C -0.0262895081 1.4962300624 0.0452347777
N -0.0055201512 0.0367883162 0.0048225030
C -0.0366182044 -0.6643610537 -1.1826151319
C -0.0174766813 -2.0128655574 -1.2300264478
C 0.0381279263 -2.8344643835 -0.0145882109
O 0.0566816315 -4.0598782626 -0.0261132874
C 0.0692602849 -2.0373087957 1.2134783044
C 0.0466641761 -0.6910141082 1.1618091009
F 0.0734897181 0.0708069134 2.2521119002
H 0.8738581232 1.8878773793 0.5261635310
H -0.0693343715 1.8647740791 -0.9794149730
H -0.9005072452 1.8607377163 0.5909269503
H -0.0775310889 -0.0436769056 -2.0693320550
H -0.0434147655 -2.5209492354 -2.1858317133
H 0.1108660259 -2.5347060946 2.1732285319