11

O 0.0237297028 1.4562630942 0.1067927755
C 0.0279408610 0.0699442461 0.0320556572
C 0.7235592016 -0.4095288132 -1.2400530026
O 1.1471791662 0.3880954169 -2.0366377105
C 0.7252406870 -0.5378124880 1.2575501468
F 0.1599069093 -0.1330826754 2.3912755691
F 0.6430499827 -1.8802009171 1.2033896568
F 2.0200057069 -0.2059144905 1.2909597810
H 0.5205163616 1.7632417866 -0.6696130429
H -0.9962556762 -0.3389942589 0.0320990300
H 0.8067094771 -1.5014256406 -1.3860388205