13

F -0.3397804576 -0.0284719478 -0.2941992569
C 0.0054095673 1.1966687797 0.0550834234
F 1.3357433127 1.2376975032 0.2121504644
F -0.2894572102 2.0297804968 -0.9721015685
C -0.7018618895 1.6518459979 1.3364644794
N -1.0475995819 0.7779226830 2.1801004553
N -0.8141685658 3.0421099367 1.3984235875
C -1.3247445598 3.7763379522 2.4477502826
N -1.7495888970 3.2464920255 3.5244797938
H -1.4623896231 1.2249078047 3.0011429851
H -0.5576536698 3.5489711470 0.5664967032
H -1.3120421333 4.8502559222 2.2314771657
H -2.0766324218 3.9587853588 4.1721893048