13

C 0.2307360649 1.1168613993 -0.5963631986
O -0.1912262640 0.3207371547 0.5039686729
C -1.3750142724 -0.3801832733 0.2802058276
C -1.2109093522 -1.4741457871 -0.7023723791
N -1.0531359453 -2.2945265804 -1.4990260600
C -1.8322603008 -0.9455566675 1.6381336456
F -2.0555648119 0.0521334705 2.4916810336
F -2.9707205329 -1.6275251982 1.4761599212
F -0.9196235928 -1.7583755108 2.1600743292
H 1.1362850033 1.6307604806 -0.2724257752
H 0.4565114233 0.4992136316 -1.4745800543
H -0.5344049863 1.8592168291 -0.8629659364
H -2.1851290431 0.2772547315 -0.0741304364