13

N 0.0284243336 1.3772669677 0.0588712473
C -0.0829782354 0.0351902314 0.0206324682
C -1.2305434598 -0.7137129101 0.0130389933
C -1.0950530872 -2.1230298402 -0.0063173353
F -2.2141880130 -2.8408305613 -0.0099543605
N 0.0057954456 -2.7952584388 -0.0207981334
N 1.1253970945 -2.0210002451 -0.0181712235
C 1.2243843876 -0.6564446825 -0.0022832747
O 2.2940772352 -0.0560473527 -0.0103628942
H 0.9662047708 1.7430465486 -0.0186225254
H -0.7635405568 1.9861600647 -0.0365492483
H -2.2204296381 -0.2736213260 0.0244905770
H 1.9931005231 -2.5381967658 -0.0354472604