13

N 0.0641191465 1.3681927169 0.0007967592
C -0.0021273794 -0.0076727935 0.0272592520
C -1.1361968824 -0.7460629129 0.0589897960
O -1.1753519668 -2.1038953183 0.1429402986
N -0.0163777017 -2.8279015235 0.2081821636
C 1.0779192867 -2.1585477651 0.1729825491
F 2.1854625020 -2.8867160888 0.2283708049
C 1.2668925148 -0.7185822924 0.0691481343
N 2.3852528232 -0.0881642971 0.0063055547
H 0.9825811036 1.7006537111 -0.2646105248
H -0.7040996948 1.8627846965 -0.4241280942
H -2.1413826705 -0.3462179299 0.0275799655
H 3.1713633688 -0.7370356531 0.0407493110