15

C 0.0062709363 1.4482208056 -0.0069408697
N -0.0629035450 0.0056491127 0.0712555914
C -1.2279603406 -0.6931132647 0.0414511093
N -2.3769467816 0.0044608336 0.0761439473
C -3.5007002737 -0.7095719183 0.0740062362
C -3.4842828539 -2.0930004107 0.0318717365
F -4.6193237507 -2.8011734388 0.0275355920
C -2.2474976889 -2.7243139426 -0.0132383207
N -1.1131260573 -2.0377892275 -0.0098032074
H 1.0450171019 1.7543800216 0.1335561780
H -0.3483366843 1.8333247251 -0.9718782855
H -0.6048982762 1.9047072501 0.7761522485
H 0.7682460353 -0.5435936582 -0.0648138063
H -4.4443518692 -0.1693107486 0.1031157509
H -2.1851859422 -3.8096222292 -0.0547459405