15

C 0.5313509118 1.0520607627 0.0790523428
N -0.5369910424 0.1386259729 -0.3262056182
C -0.1747206353 -0.7396785118 -1.4133602163
C 0.7661696594 -1.8819907124 -1.0351906790
O 1.0437277936 -2.1859591158 0.0936003706
C 1.3550346834 -2.6882570886 -2.2252523601
F 0.3679830936 -3.0813282656 -3.0465371090
F 2.1815484052 -1.8985883699 -2.9301134785
F 2.0258360495 -3.7552395528 -1.8231177305
H 1.4697822766 0.5571504387 0.3730377041
H 0.7500935354 1.7391535310 -0.7460051253
H 0.1835658934 1.6517069953 0.9244244833
H -0.8143452519 -0.4252248982 0.4709809269
H -1.0711306559 -1.2083779686 -1.8458336295
H 0.2782403236 -0.1653248869 -2.2309829814