13

F -0.0020339605 0.1044658995 -0.1515811688
C 0.0089055899 1.4365169880 0.0041316782
F 1.2787887034 1.8391885997 0.0459020971
F -0.5604568823 1.9729416596 -1.0894584955
C -0.7494123162 1.8546581198 1.2465604672
C -2.1420480236 1.2201552426 1.4397362316
O -1.6789736297 0.5737155275 2.6654117357
C -0.4144011415 1.1039080541 2.5265269276
N 0.6144023298 0.9923415170 3.2266345497
H -0.7054746630 2.9407446440 1.3347954448
H -2.9597504829 1.9133003937 1.6430808393
H -2.4344197955 0.4805245733 0.6925040196
H 0.4599513322 0.3864343411 4.0340178336