17

C -0.0400597102 1.5280680365 0.0769203175
C 0.0498742947 0.0097646887 -0.0438699300
C 0.7217518466 -0.4649397746 -1.3241527741
O 1.1407941089 0.3112190951 -2.1591350911
C 0.8387732892 -1.9429919550 -1.4998226136
C 0.7439984791 -2.4872049719 -2.9184863236
C 2.0662705921 -2.4639408531 -2.2342795839
H 0.9547937237 1.9799091332 0.0524317687
H -0.6071677484 1.9517349593 -0.7557869751
H -0.5291839674 1.8147391925 1.0121433145
H 0.6010848796 -0.4271304706 0.8011565482
H -0.9455014320 -0.4550600253 -0.0000024362
H 0.4366194629 -2.5574744026 -0.7019122905
H 0.2359445707 -3.4353411604 -3.0515818926
H 0.5690457076 -1.7462422154 -3.6899581908
H 2.7762505842 -1.7073513156 -2.5478194290
H 2.4945080585 -3.3956094810 -1.8829961984