16

C 0.0038075686 1.6017458784 -0.0310455843
C -0.0235968614 0.0697110231 -0.0396427311
C 0.6195318832 -0.5214750083 1.2354154752
C -1.4651433893 -0.4535618101 -0.1057453623
O -2.4343761846 0.2237913016 0.1056257562
C 0.7205714160 -0.4656778437 -1.2664947552
F 1.9932800213 -0.0470438563 -1.3009196502
F 0.7417826053 -1.8107010757 -1.2868463114
F 0.1309261444 -0.0637222049 -2.4041258069
H 1.0258245648 1.9668949462 0.0927458609
H -0.4039885012 2.0067927525 -0.9596143201
H -0.6103112690 1.9714297604 0.7916756402
H 0.1256096022 -0.1127886024 2.1202644588
H 0.5386524473 -1.6111494628 1.2623284278
H 1.6793111749 -0.2567069521 1.2750931558
H -1.5521161627 -1.5389929560 -0.3253033034