14

O 0.0006448730 1.4415533666 0.0077553379
C 0.0229618084 0.0285496145 0.0019391101
C -1.3941163793 -0.4766764526 0.0121248481
C -2.5171618751 0.3415320217 0.0236026773
N -3.7702658260 -0.1364554515 0.0324285337
C -3.8885781364 -1.4583903286 0.0296383260
N -2.8900313408 -2.3518920516 0.0190266820
C -1.6855168323 -1.8397995391 0.0106297956
F -0.6673009231 -2.6973122674 -0.0000140327
H 0.9079163348 1.7582602421 0.0019611091
H 0.5405122757 -0.3675163569 -0.8866626045
H 0.5557518946 -0.3746371619 0.8782184983
H -2.3953050184 1.4190028970 0.0257321761
H -4.8957739751 -1.8659125623 0.0367303429