12

O 0.0921741370 1.3384346504 0.0973746261
C 0.0704939870 -0.0075198247 0.0583112576
N 0.0804528211 -0.5835096188 -1.1400505670
C 0.0589294797 -1.9209332582 -1.1787649253
C 0.0272040706 -2.7306891541 -0.0536386363
C 0.0178522697 -2.0841890688 1.1800832142
F -0.0122842748 -2.8067733430 2.2965311945
C 0.0392300485 -0.7065608450 1.2690695581
H 0.1120355410 1.6290532100 -0.8253077217
H 0.0676476865 -2.3673802692 -2.1694489055
H 0.0103539154 -3.8103282380 -0.1180469062
H 0.0322748824 -0.1928781505 2.2206937516