15

C -0.0301829376 1.5594798882 -0.0321330066
C 0.0068116727 0.0573233105 -0.0307929947
C -0.1146754270 -0.7133943588 -1.1755310240
F -0.2739578716 -0.1035749793 -2.3526151695
C -0.0767208369 -2.1055772112 -1.1441623172
C 0.0898076622 -2.6984274902 0.0954001124
N 0.2126071462 -2.0062632097 1.2351026119
C 0.1701477269 -0.6835016963 1.1531374778
O 0.2943923489 0.0108764572 2.3050635035
H 0.8958171233 1.9735233125 0.3799703895
H -0.1641519337 1.9431757366 -1.0441036966
H -0.8475537637 1.9307857619 0.5945783727
H -0.1743339223 -2.6809601736 -2.0551464790
H 0.1275270274 -3.7801529202 0.1868701172
H 0.3960780352 -0.6526473776 3.0017749426