15

C -0.0028071419 1.5352438262 -0.0147925497
C -0.0556474411 0.0357705611 0.0070349353
C -1.1862838411 -0.6947106178 -0.1181585834
C -1.1775393809 -2.1499884993 -0.0895491633
N -2.2584119242 -2.8335534676 -0.2096862409
N 0.1073991646 -2.6762912862 0.0786831654
N 1.2648076672 -1.9896446219 0.2077218626
C 1.1663458245 -0.7146383719 0.1714132861
F 2.2965908536 -0.0201453335 0.2972250844
H 0.6388483887 1.8915885905 -0.8275442030
H -1.0006725811 1.9581078072 -0.1457199884
H 0.4240805067 1.9245206205 0.9155431473
H -2.1573531118 -0.2315300947 -0.2463498402
H -2.0789034660 -3.8381340251 -0.1686305875
H 0.2272359229 -3.6769660076 0.1120516955