14

C 0.1283103668 1.3980116481 0.1360386476
N 0.1552531959 -0.0516566958 0.1190416224
C 0.4832891474 -0.6251742126 -0.9724665813
N 0.8280319134 -0.0209265714 -2.1816894314
N 1.1728549652 -0.6521604153 -3.3279681898
C 1.1759528836 -1.9433246640 -3.2720764018
N 0.8648656767 -2.7163730460 -2.1688517321
C 0.5450753481 -2.0855327725 -1.1084284384
F 0.2399968494 -2.7649637335 -0.0298006755
H 1.1133794663 1.8409558481 -0.0880281160
H -0.5918087492 1.8152115148 -0.5879439589
H -0.1679508554 1.7427670253 1.1288293009
H 0.8328773626 0.9838951621 -2.2496923985
H 1.4483871493 -2.4726213171 -4.1760551970