18

O -0.0351016850 1.4442966508 0.0263822956
C -0.0075938020 0.0296990689 0.0649178609
C 0.4431012002 -0.5986326469 1.4133558447
C -0.7425999157 -0.3308875652 2.3611174643
C -1.3573553272 -1.3494526426 1.3735966369
O -0.0274886636 -1.9695278215 1.2480121285
C -1.4329829760 -0.5565887686 0.0771592448
C -2.6115182438 0.1412349376 -0.4708136427
N -2.1142741928 -1.1087744155 -1.0887749451
H 0.8706928448 1.7610181642 -0.0520212918
H 0.5872408039 -0.3838697954 -0.7613902345
H 1.4908393091 -0.5105721134 1.7044093571
H -0.5799401022 -0.7599676397 3.3498876291
H -1.1588189604 0.6771181740 2.4098125891
H -2.1638520927 -2.0407691169 1.6116749908
H -3.5786141632 0.0536619820 0.0178060434
H -2.4362580581 1.0863050534 -0.9759857967
H -1.5919645250 -0.8926685452 -1.9352225843