12

F -0.0153843451 0.0740468634 0.0036246317
C -0.0254098523 1.3868693188 0.0104508867
N -1.2243043777 1.9462976465 0.0297904571
C -1.2169726376 3.2787939618 0.0370938808
C -0.0402099060 4.0259626663 0.0254241399
C -0.0473375403 5.5028428138 0.0336833757
O 0.9495092569 6.1849391363 0.0239871767
C 1.1518071390 3.2916430002 0.0054158674
N 1.1698369506 1.9628770160 -0.0022042997
H -2.1890305773 3.7690988764 0.0528597064
H -1.0615537845 5.9592463475 0.0496893704
H 2.1076912543 3.8078465731 -0.0045185132