10

F 0.0565811958 0.0728789564 0.1512261634
C 0.0029474744 1.3761982756 0.0376323958
N -1.1716657265 1.8762442515 -0.0348801238
O -1.2153300987 3.2735348400 -0.1568048794
C -0.0573533855 3.9569673789 -0.1870903665
N 1.1293153882 3.5031683150 -0.1183243411
C 1.2779468019 2.1129637805 0.0055857556
N 2.3815617899 1.4880831307 0.0869018943
H -0.2655550025 5.0196232564 -0.2841048166
H 3.1504967132 2.1621022551 0.0476831482