14

C 0.0856541481 1.4753307300 0.0282856718
C -0.0491238640 -0.0089218284 -0.0059406205
C -1.2029918375 -0.7023537142 -0.1422479081
C -1.0572242186 -2.1228007472 -0.1456309765
F -2.1703711897 -2.8260123472 -0.2775868409
N 0.0406193059 -2.7674892809 -0.0337428210
C 1.2126358881 -2.0433285669 0.1049013720
N 2.3842966833 -2.4963179398 0.2273552990
O 1.1273974179 -0.6351070075 0.1149298055
H 0.7416362614 1.8097515079 -0.7818927932
H -0.8874647092 1.9574474614 -0.0719643896
H 0.5501514170 1.7873083533 0.9692558193
H -2.1644431195 -0.2229215049 -0.2413384220
H 2.3413266066 -3.5134028156 0.2087183143