15

C 0.2805529780 0.9728289846 0.3729210112
O -0.2128289583 0.1124576298 -0.6497885018
C 0.6127446893 -0.8853800516 -1.0146354552
N 0.2464479632 -1.6883816951 -1.9135614428
C 1.0751479120 -2.7796718065 -2.3560861692
C 2.4477633226 -2.9775904495 -1.7188472765
F 2.3671552434 -3.1911425311 -0.3930383341
F 3.0612340801 -4.0383937689 -2.2617659384
F 3.2493467020 -1.9117760013 -1.8959327950
H 0.4690695140 0.4231495410 1.3026600083
H 1.1996264820 1.4819244771 0.0595090132
H -0.4977097525 1.7159981466 0.5485104658
H 1.5625672705 -0.9005878720 -0.4696752915
H 0.5313072496 -3.7216233961 -2.2155881859
H 1.2470878439 -2.6835890572 -3.4349633081