17

N 0.0566131097 1.5949276595 -0.2253192193
C -0.0465080430 0.1654059523 0.0181572065
C 0.1742257812 -0.2744894688 1.4953122624
C -1.1367978220 -1.1051433920 1.4300562602
C -1.4981715351 -0.3918127827 0.0982954265
C 0.8193146020 -0.6345571514 -0.9511053283
F 2.1159827159 -0.2896605169 -0.8406325559
F 0.7428884086 -1.9607521670 -0.7476108612
F 0.4556348297 -0.4067274745 -2.2271704641
H 1.0278710765 1.8865165799 -0.1413075834
H -0.2193031186 1.7990052243 -1.1832561030
H 1.0995764960 -0.8088139854 1.7190220283
H 0.0938885683 0.5961143418 2.1486654832
H -0.9472559034 -2.1708780179 1.2926503487
H -1.8367255015 -0.9766175516 2.2571591624
H -2.1969492281 0.4354014454 0.2350517070
H -1.8352110463 -1.0147011452 -0.7325087801