12

F 0.0722696222 0.0918350679 0.0390810984
C -0.0784731697 1.3901483562 -0.0122284878
C -1.2424922026 2.0197735957 0.1456386289
C -1.2653035408 3.4681845876 0.0638381443
N -2.3361905858 4.1446685084 0.2031026452
N 0.0122535782 4.0204042948 -0.1827997270
C 1.2008412688 3.3571194631 -0.3421047942
O 2.2608828049 3.8653427793 -0.5506853664
O 1.1111985805 1.9731241886 -0.2459015073
H -2.1573725711 1.4798297407 0.3307470111
H -2.1741613844 5.1486061784 0.1165489872
H 0.0960832799 5.0243278092 -0.2564439524