16

C -0.0554507470 1.5006688710 -0.0754528784
C 0.1081362055 -0.0018927152 -0.0451037388
C 1.4788973965 -0.6446537265 -0.1354223827
C 0.7015255465 -0.6747754849 1.1590168510
O 1.0872424912 0.1396090550 2.2213830243
C 0.1209844804 -1.9860602839 1.6297816313
F 1.0123255957 -2.6370691521 2.4061137804
F -0.9841255544 -1.8129706840 2.3629444758
F -0.1913336864 -2.7950768019 0.6053744857
H 0.7390662766 1.9934473312 0.4887201873
H -0.0289094407 1.8679698524 -1.1063161983
H -1.0118594933 1.7996202285 0.3651895915
H -0.6882940897 -0.5609701475 -0.5274467665
H 1.5918177102 -1.5607988630 -0.7024216980
H 2.3377859917 0.0179877386 -0.1427905685
H 1.8311606073 -0.2852936976 2.6640879639