18

C 0.2394786682 1.5544564070 0.3633567029
C 0.0232815736 0.0648646092 0.0765835461
C 0.7071699336 -0.7891595809 1.1562927445
O -1.3900187335 -0.1245021910 0.1327619950
C 0.5927702489 -0.3459915526 -1.3069831117
C -0.2153225411 0.0508645621 -2.5303035285
F -0.4973408053 1.3598250151 -2.5872101958
F 0.4703021545 -0.2525076386 -3.6485704921
F -1.3816611205 -0.6163458000 -2.5999705956
H 1.3065613976 1.7939593429 0.3934630943
H -0.2389901026 2.1710020519 -0.3975581280
H -0.1981346720 1.8018605037 1.3341671181
H 0.3305596617 -0.5066019531 2.1427968338
H 0.4953557982 -1.8533236628 1.0022213210
H 1.7944305368 -0.6573853574 1.1478332581
H -1.6010045477 -1.0025102372 -0.2015216347
H 1.5972731064 0.0676825498 -1.4332172519
H 0.6902358131 -1.4360663681 -1.3634942554