11

F -0.5745796295 0.2725390289 -0.3740865909
C 0.0060569940 1.4017515721 0.0450099462
F 1.3006781242 1.1338876481 0.2461122910
F -0.0781825033 2.3021121429 -0.9507831171
C -0.6489632570 1.9442424955 1.2723833314
C -1.2629177873 3.1602875168 1.4406254797
N -1.6716520900 3.1246640496 2.7264995407
N -1.3357312814 1.9624024233 3.3244651683
N -0.7140119340 1.2454951953 2.4396004859
H -1.4295271599 3.9960452161 0.7838085887
H -2.1679843359 3.8254471914 3.2546093161