16

C -0.0288698249 1.5031173497 0.0530217961
C -0.0087687050 0.0005880900 -0.0275135698
C 0.1805410475 -0.6871454521 -1.2213396492
C 0.1856052657 -2.0817575770 -1.2273759746
C -0.0001129221 -2.7789315860 -0.0369842381
N -0.0748816279 -4.1647905051 0.0602237068
C -0.1742892326 -1.9697269324 1.0986473114
F -0.3404770168 -2.6115270610 2.2680808237
N -0.1826341272 -0.6701417227 1.1288874501
H 0.1335486483 1.9575179575 -0.9274791470
H -0.9885877159 1.8571880841 0.4441121973
H 0.7466073167 1.8647178651 0.7364173901
H 0.3249264232 -0.1408966251 -2.1466734028
H 0.3298482652 -2.6288787903 -2.1541750592
H 0.4492486581 -4.6707565707 -0.6385789408
H 0.0892908279 -4.5169179441 0.9919499362