15

N 0.0054634274 1.4264053104 -0.0936337444
C 0.0021566693 0.0249832636 -0.0361289869
C -1.1990945276 -0.6945026736 -0.0178303521
C -1.2064609825 -2.0860491007 -0.0283009963
C -0.0145532276 -2.8013872775 -0.0559365048
O -0.0161653649 -4.1659815170 -0.0629738265
C 1.1723337234 -2.0721689981 -0.0727427878
F 2.3244017831 -2.7765220383 -0.0959412513
C 1.2064585333 -0.6912391604 -0.0636491301
H 0.8355055851 1.8533337870 0.2932832544
H -0.8239363272 1.8517761538 0.2963971094
H -2.1419242348 -0.1569686904 0.0006515647
H -2.1407808254 -2.6355982302 -0.0120659105
H 0.9028691466 -4.4575601982 -0.0844321940
H 2.1665453118 -0.1874419203 -0.0831686439