12

F -0.3005476860 0.1220536001 0.8778406251
C -0.1289568090 1.3338310094 0.3281909743
F 1.1689979972 1.4858246993 0.0695667498
F -0.7965709009 1.3609257572 -0.8342458850
C -0.6597035298 2.4320058268 1.2452475642
O 0.0147228697 2.4378034692 2.4813569713
C -0.4773353463 1.6285054883 3.4561206315
N 0.1465687628 1.5238709033 4.5426885791
H -0.4785232919 3.3966436527 0.7669378261
H -1.7408191557 2.2873362996 1.3586508791
H -1.4212568681 1.1408865020 3.1819466399
H -0.3552959820 0.9076102321 5.1783133846