16

C -0.0157599112 1.5000421955 0.0251368942
C -0.0019395646 -0.0000041820 -0.0190400900
C -0.0390576721 -0.6932705135 -1.1880833044
N -0.0257130616 -2.0562410162 -1.2159668293
C 0.0257026830 -2.7881975759 -0.0535435950
C 0.0651060735 -2.1702830950 1.1563284471
O 0.1168638442 -2.8347456346 2.3391595228
C 0.0539253962 -0.7008209717 1.2653568812
O 0.0887980845 -0.1184651899 2.3458250574
H 0.8748060370 1.8774294840 0.5386838366
H -0.0585058188 1.9360008919 -0.9769570474
H -0.8722366076 1.8593265310 0.6053242954
H -0.0807935957 -0.2072987910 -2.1561987000
H -0.0553435917 -2.5375419549 -2.0976880652
H 0.0325967982 -3.8662634946 -0.1696701622
H 0.1203396366 -3.7844357332 2.1774945886