13

C -0.0193747853 1.5041679198 -0.0019264032
C 0.0001608437 0.0075887292 -0.0549054767
N -0.0241491675 -0.6128225780 -1.2074783617
C -0.0015943022 -1.9650084606 -1.0992207582
F -0.0264269342 -2.5679039601 -2.2662004809
N 0.0393304664 -2.7243961536 -0.0569179099
C 0.0657777479 -2.1048286552 1.1743015517
O 0.1047646082 -2.6436588137 2.2505098669
N 0.0433061565 -0.6750145763 1.1049306648
H 0.8761947281 1.8821928209 0.5022300781
H -0.0577833481 1.8985374745 -1.0161884474
H -0.8903600560 1.8574599540 0.5598777463
H 0.0621107125 -0.1976329908 1.9960364303