11

F 0.3611729407 0.1210348653 0.1204335362
C -0.0279067041 1.4002732773 0.0064380016
F 1.0750214665 2.1187985095 -0.2544233650
F -0.8374208613 1.4896275522 -1.0586114103
C -0.7160037205 1.8767809131 1.2360138745
C -1.9830974319 2.3511211109 1.3524698766
O -2.2372705563 2.6799091368 2.6201797542
N -1.1071124186 2.4218818302 3.3965620044
C -0.2155515988 1.9477199482 2.5665363164
H -2.7806238978 2.5027294002 0.6427768470
H 0.7605201620 1.6684905362 2.9361813943