10

F 0.0171093034 0.0869898077 0.0031516068
C -0.0849042529 1.3857341120 0.0116918531
N -1.2122355087 1.9587516766 0.0301900424
C -1.2000580877 3.3588817771 0.0377227656
N -2.2157535715 4.1188153531 0.0557714802
C 0.1555533099 3.9461667380 0.0224906886
F 0.2489940539 5.2493431100 0.0284509518
N 1.2652779801 3.3130023915 0.0039057510
O 1.1450030160 1.9067376560 -0.0021862872
H -3.0666898026 3.5517395279 0.0642551078