14

C -0.0163049127 1.4455178376 0.0138892479
N -0.0731410223 -0.0011260926 -0.0267079563
C -1.2282432467 -0.7048156030 -0.0025266073
N -1.1140520448 -2.0571572046 0.0170210737
C -2.2528579128 -2.7124838645 0.0237123644
C -3.4622979700 -2.0068778292 0.0110632416
F -4.6138864034 -2.6687628219 0.0150772696
N -3.5191892867 -0.7010678788 -0.0002577997
N -2.3815092495 -0.0112447493 -0.0045047249
H 1.0279496987 1.7524263214 -0.0674494441
H -0.5809832376 1.8810151766 -0.8156415007
H -0.4340177859 1.8443316036 0.9455574986
H 0.7700572526 -0.5442093584 0.0397925932
H -2.2333775289 -3.7994615471 0.0407728640