12

N 0.0482801891 1.4088706127 0.1609920356
C -0.0249724829 0.0244458428 0.0435895618
C -1.1711979324 -0.6921771389 -0.0087841407
O -1.1542166164 -2.0578440475 -0.0368789788
C 0.0107196360 -2.7723616170 -0.0239789453
O 0.0118699732 -3.9715096504 -0.0455609052
C 1.2005013796 -1.8933861611 0.0123140196
F 2.3482384711 -2.5364340294 0.0024662983
N 1.1981203800 -0.6222927605 0.0450924850
H 0.9166572502 1.7781922117 -0.2008220799
H -0.7541959114 1.9132985248 -0.1869540506
H -2.1748738961 -0.2926958772 -0.0231416599