18

C -0.0819994435 1.3547576382 0.1338025530
O 0.0287845078 -0.0413106676 -0.0404456852
C 0.6909261379 -0.5075250833 -1.2093063349
C -0.0499983737 -0.1136963663 -2.4954156960
C 2.1688572685 -0.0922606193 -1.2472495752
C 0.6113287274 -2.0390877111 -1.0414406499
F -0.6537816789 -2.4670109126 -0.9884017722
F 1.2022907904 -2.6576400003 -2.0816920761
F 1.2293673735 -2.4488009170 0.0705935318
H 0.8957689908 1.8494157622 0.2072446389
H -0.6596465928 1.8351255233 -0.6672625560
H -0.6135636663 1.5004683645 1.0768729490
H 0.0403097947 0.9592991862 -2.6799995596
H 0.3747977752 -0.6377176779 -3.3546503542
H -1.1083231076 -0.3713751375 -2.4156898326
H 2.6537032555 -0.3341564854 -0.2989782672
H 2.6904344378 -0.6161794590 -2.0514888147
H 2.2640911035 0.9805872428 -1.4301931789