14

N -0.0419487908 1.4006293677 0.2022932810
C -0.0005008912 0.0304522831 0.0688411608
C -1.1869333103 -0.7238059934 0.0504192616
C -1.0560280866 -2.0962116936 -0.0333594231
F -2.1636828789 -2.8343148451 -0.0537152811
N 0.0753163816 -2.7703343690 -0.0997534146
C 1.1901214477 -2.0363852255 -0.0818560779
O 2.3574790221 -2.7078347763 -0.1507409610
C 1.2213874349 -0.6498720566 -0.0015748611
H 0.7823967723 1.9105957980 -0.0725052888
H -0.9046759644 1.8578097860 -0.0460604772
H -2.1654426206 -0.2646972464 0.1044350218
H 2.1226646907 -3.6446492205 -0.2003240739
H 2.1695137534 -0.1272778083 0.0099162735