11

F -0.5015404414 0.0811363203 -0.2130274546
C -0.0497699625 1.3137215741 0.0538672809
F 1.2794183474 1.2527104564 0.1912535124
F -0.3273836825 2.0737593906 -1.0136815854
C -0.6465989029 1.8666736633 1.3003030354
C -0.1264092258 2.2930021600 2.4745898996
N -1.1629847136 2.7133843762 3.2957658168
C -2.2262788504 2.5209686968 2.5858276843
O -2.0023684411 2.0069917952 1.3550371811
H 0.9050038252 2.3274707134 2.7843939782
H -3.2544340724 2.7156688536 2.8470479615