13

O 0.0985855099 1.3659638701 0.1144897697
C 0.0705427744 0.0177384467 0.0610200293
C 0.1154547911 -0.6517329068 -1.1625971865
O 0.1886569112 0.0873082995 -2.3084924224
C 0.0818950353 -2.0400550238 -1.1276088917
F 0.1266743031 -2.6599929554 -2.3205510915
N 0.0122436779 -2.7802789598 -0.0534714758
C -0.0302907846 -2.1260196313 1.1179042982
C -0.0042128657 -0.7438436136 1.2286605253
H 0.1520646611 1.7022341426 -0.7900745089
H 0.2125963370 -0.5187938823 -3.0582443030
H -0.0881308002 -2.7459716307 2.0069264273
H -0.0402066604 -0.2490672851 2.1911672300