15

F -0.8128950824 0.2611836032 -0.2397118111
C -0.0650877141 1.3252555066 0.1115590133
F 1.2062116716 0.9226662812 0.1636805206
F -0.1698502101 2.2353000009 -0.8664520883
C -0.5454101373 1.9059376931 1.4307331407
N -0.5441254236 0.8817200000 2.4589217632
C -0.9017686099 1.3707374695 3.7800861082
C 0.2792002926 2.0694565137 4.4434085112
O 0.1776253980 2.9602302563 5.2438838668
H 0.1463014617 2.7094784244 1.7047941740
H -1.5300259096 2.3682730636 1.2460703464
H -1.1482677171 0.1189740497 2.1787611914
H -1.7730784833 2.0453516770 3.8124749569
H -1.1374492321 0.5047970487 4.4131933500
H 1.2654518954 1.6595211821 4.1272657466