13

F 0.0143016088 0.0199594424 0.0030690659
C -0.0142392783 1.3529979921 0.0104850687
C -1.2271459469 2.0158859446 0.0305669292
C -1.2051554324 3.4167744054 0.0376487306
C 0.0496497710 4.0516372315 0.0238359992
N 1.2080627829 3.3981469434 0.0045423286
C 1.1802075629 2.0646149842 -0.0021064921
C -2.4071341837 4.1774103728 0.0580929858
C -3.4190854234 4.8292790196 0.0753403494
H -2.1587528989 1.4635466230 0.0403996212
H 0.0982159483 5.1363668066 0.0288852516
H 2.1278672123 1.5335159881 -0.0178735334
H -4.3122738425 5.4039314764 0.0905080154