17

C -0.1132369782 1.4266384803 0.7758820637
C 0.0930867227 -0.0227474769 0.3945693546
C 0.2914260584 -0.4223384820 -1.0287835999
N 1.3707666570 -0.5672674650 -0.0724519533
C 2.5376068150 0.2911448662 -0.2242706351
C -0.2787910957 -1.6925917416 -1.6013649605
F -1.4557259754 -1.4458493714 -2.2051770763
F 0.5378524407 -2.2211977318 -2.5270984145
F -0.4875102635 -2.6234495683 -0.6654595791
H 0.3477513624 2.1200951204 0.0691168627
H -1.1842736019 1.6499393055 0.8097151999
H 0.2984874735 1.6281117577 1.7705480859
H -0.4385797914 -0.7289691325 1.0293347603
H 0.3514500338 0.3746444412 -1.7698632978
H 2.3225941607 1.2942581015 -0.6214063033
H 3.0284213175 0.4019500428 0.7472216499
H 3.2398358346 -0.1985130362 -0.9052957374