14

N 0.0066730333 1.3516916615 -0.1515941733
C -0.0008177561 -0.0178573163 -0.0581212474
N -1.1866424843 -0.6316552680 -0.0256333751
C -1.1617853175 -1.9654043592 0.0129277305
C 0.0089154554 -2.7202241674 0.0211594685
N 0.0583900796 -4.1161877600 0.1307691451
C 1.1662702928 -1.9354982804 -0.0121760438
F 2.3413952741 -2.5702688375 -0.0091767173
N 1.1971042950 -0.6321720490 -0.0486641314
H 0.8629601877 1.8059470516 0.1208259743
H -0.8498092610 1.8069883746 0.1189340902
H -2.1274215960 -2.4678872512 0.0414210434
H -0.7239828414 -4.5842285665 -0.3066190460
H 0.9325879682 -4.5019743123 -0.1991138977