10

F 0.0017645249 0.0217409368 0.0034256825
C -0.0162935236 1.3519791418 0.0107392916
C -1.2171871435 2.0461170758 0.0301336128
N -1.2377979061 3.3794191728 0.0374913690
C -0.0521227801 3.9909793143 0.0252097172
N 1.1497161817 3.4120038080 0.0064569688
C 1.1653106811 2.0786326265 -0.0008351273
H -2.1656210758 1.5146674906 0.0397137905
H -0.0668704082 5.0773277365 0.0312536195
H 2.1278224295 1.5732659870 -0.0160942046