12

O 0.0854181150 1.3593274826 -0.1113444558
C 0.0645383909 0.0033615657 -0.0277515824
C 0.0187341096 -0.7287901269 -1.2141521895
N -0.0046048102 -2.0633269013 -1.2325391458
C 0.0160398002 -2.7145581387 -0.0997171593
F -0.0078145371 -4.0432023794 -0.1365964430
C 0.0617172208 -2.0771979474 1.1405953634
F 0.0809660745 -2.7897100239 2.2633447375
C 0.0865237714 -0.6958309804 1.1824924125
H 0.1166134461 1.7410196257 0.7718802887
H 0.0008665044 -0.2108702536 -2.1674591313
H 0.1220768444 -0.1919615523 2.1429288749