15

C -0.0830872884 1.5473503069 -0.1627744708
C 0.0043970557 0.0442199544 -0.0039852812
C 1.2904346260 -0.7119077628 -0.2144611296
C 0.6849833219 -0.6315813767 1.1662807641
C 1.3682921147 0.1401151058 2.2553375688
F 2.2294019697 1.0644300944 1.7893588713
F 0.4847795136 0.7863710747 3.0372988565
F 2.0697469429 -0.6809965628 3.0557841461
H 0.8412742174 2.0442422845 0.1363049035
H -0.2835424649 1.8051326537 -1.2078173284
H -0.8950437453 1.9581094138 0.4462355589
H -0.8921826916 -0.4789876719 -0.3265077874
H 1.2713720065 -1.6694621745 -0.7217459228
H 2.1870526763 -0.1268013163 -0.3848080212
H 0.2103094955 -1.5209414931 1.5664762721