13

O -0.0309824052 -0.0696811304 0.0037985978
C -0.0224868275 1.1166453482 0.0012558480
C -0.9735624595 2.3107466565 0.0187073710
N 0.0210297044 3.0689582276 0.9581364710
C 0.0001912216 4.2597958324 -0.0000061048
C -0.0384517720 3.0917370818 -0.9827155811
C -0.0828902181 3.0864682161 -2.4274727278
N -0.1183109710 3.0987028838 -3.5829163007
C 0.9450096710 2.2968804549 -0.0402542505
H -2.0502782641 2.4209507404 0.1283934977
H -0.8940578021 4.8808412071 0.0899645845
H 0.9071521007 4.8678230058 0.0346101453
H 2.0279077146 2.3914764160 0.0030628398