12

O 0.0253168348 1.3462692652 0.0593376477
C 0.0506566619 0.0083208530 0.0458625842
N 0.0687243226 -0.6203316473 -1.1309765956
C 0.0936023991 -1.9489706533 -1.0902648172
N 0.1022870874 -2.7129409678 -0.0022326669
C 0.0840679688 -2.0752462829 1.1697363509
O 0.0918279288 -2.7990857944 2.2953142621
C 0.0574296023 -0.6864028385 1.2515227261
F 0.0393824269 -0.0556235283 2.4214546627
H 0.0250232860 1.6247076460 -0.8677874766
H 0.1083627510 -2.4645017922 -2.0464640048
H 0.1107776305 -3.7265415195 2.0186279075