17

C -0.0001357471 1.5219233979 -0.0049857896
C 0.0072710427 0.0154042197 -0.0069260567
C -0.0401419135 -0.6986937884 -1.2032377003
C -0.0151479062 -2.0852216503 -1.1987859775
F -0.0601902942 -2.7454013569 -2.3672363405
C 0.0555595787 -2.7962463607 -0.0127689836
C 0.0955016213 -2.0925931838 1.1864593954
C 0.0735089194 -0.6942684145 1.2095765979
N 0.1854332054 -0.0001512836 2.4243921372
H 0.8645169726 1.9239783197 0.5365961575
H 0.0216897159 1.9182874141 -1.0226372825
H -0.8981054701 1.9280461114 0.4821362794
H -0.0925668201 -0.1762350690 -2.1523892796
H 0.0730562146 -3.8794346939 -0.0323429778
H 0.1479500311 -2.6380318184 2.1243122546
H -0.0480833213 -0.5589024525 3.2332558051
H -0.3074708489 0.8813427990 2.4511241111