12

N 0.0167550082 1.3849343194 0.1508969915
C 0.0073921541 0.0192829913 0.0507213169
C -1.1280276368 -0.7261928650 0.0278538346
F -2.3193332903 -0.1271062142 0.0470293333
C -1.1124655745 -2.1659934444 -0.0213744302
O -2.0575471933 -2.9041200890 -0.0472886168
O 0.1733248182 -2.7333344389 -0.0480984686
N 1.3401884471 -2.0084708008 -0.0303275193
C 1.2422451048 -0.7258391458 0.0184281440
H 0.8352732888 1.8739525707 -0.1736522271
H -0.8569664298 1.8543483445 -0.0299429124
H 2.1942451336 -0.2021227478 0.0381422941