14

F -0.4375043827 0.0612073266 0.1854798580
C -0.1050342065 1.3614227744 0.0981526012
F 1.2282509031 1.4269096309 -0.0308254785
F -0.6447717111 1.8357753567 -1.0354268364
C -0.5926042004 2.1417221611 1.3053633302
C 0.0678190259 1.6988813558 2.5920259771
C -0.7178874014 1.6618052100 3.8504239955
N -0.2839820786 0.4120250970 3.2075318226
H -0.3921708866 3.2005653507 1.1112899243
H -1.6790358558 2.0146667903 1.3560685716
H 1.1294494652 1.9261499441 2.6504238011
H -0.2365047564 1.8805641984 4.7989987694
H -1.7669360680 1.9440347372 3.8008694710
H -1.0533016867 -0.0185204034 2.7009491029