15

N 0.0954195856 1.3964732302 0.1348489645
C -0.0100686469 0.0055157328 0.0262296806
C -1.1704225336 -0.6978862224 0.0065551479
C -1.2072991259 -2.1497946893 0.0011524046
N -2.3157430008 -2.8099159466 -0.0056256681
C 0.1292644468 -2.7460945531 -0.0230050567
F 0.1965923206 -4.0831415792 -0.0604914832
C 1.2617266138 -2.0242630052 -0.0158119856
N 1.2078715871 -0.6406632893 -0.0178579188
H 0.6922993397 1.8094008146 -0.5733279237
H -0.8089220371 1.8484139278 0.1257537598
H -2.1195881121 -0.1766815295 -0.0223520016
H -2.1146998791 -3.8109478533 -0.0249323675
H 2.2434527098 -2.4781083871 -0.0297916919
H 2.0190844721 -0.1265795604 0.2859501896