13

N 0.0137456618 1.4428464053 -0.1374286954
C 0.0338487056 0.0719648041 -0.0646187187
C -1.1448062712 -0.7068755659 -0.0823011869
O -2.3174073486 -0.0326724068 -0.1125702947
N -1.1832232142 -2.0225359104 -0.0638322926
N -0.0524391501 -2.7343419437 -0.0256483354
C 1.1025136704 -2.0812894488 -0.0000892676
C 1.1841661005 -0.6918334307 -0.0153917264
F 2.3696175635 -0.0718080132 0.0239229930
H 0.8464996268 1.9168882965 0.1752769594
H -0.8539300925 1.8805521703 0.1301878064
H -3.0124779481 -0.7068360548 -0.1081929396
H 2.0069814962 -2.6793875019 0.0357085185