16

C -0.0110849604 1.5045272945 -0.0183730926
C 0.0004685157 -0.0015210732 0.0035336766
N -0.0588398457 -0.6345384441 -1.1667917728
C -0.0407807577 -1.9683832763 -1.2052810353
C 0.0367640933 -2.7177556405 -0.0422104515
F 0.0506548254 -4.0528981259 -0.1080736884
C 0.0950756816 -2.0966937450 1.1928202830
C 0.0792740543 -0.7011676286 1.2313962253
N 0.1979010096 -0.0141717048 2.4355994340
H 0.8757587421 1.9224234610 0.4739565846
H -0.0340395390 1.8471685388 -1.0532408633
H -0.8907739651 1.9169619974 0.4958737211
H -0.0885521197 -2.4554362213 -2.1742358973
H 0.1540174860 -2.6913814507 2.0982148179
H -0.0477605595 -0.5437299691 3.2590928147
H -0.2041915309 0.9109086979 2.4489824240