20

C 0.8257929836 -0.2943305704 1.2859646400
C 0.0232112211 0.0257617781 0.0216808525
C 0.7387872843 -0.4035014829 -1.2755487539
C 0.8340527638 -1.9322664434 -1.4620221271
C 0.1247130253 -2.2430262276 -2.7970504440
O -0.0037234778 -3.3571114331 -3.2630074569
C -0.3321466880 -0.9769749235 -3.3472369312
C 0.0100925272 0.0523427386 -2.5322492012
N -0.1826659190 1.3797653496 -2.7486705345
H 1.0233938277 -1.3669324534 1.3754695948
H 1.7928744061 0.2207676491 1.2793569950
H 0.2857218256 0.0201826910 2.1840067695
H -0.9562272968 -0.4675957471 0.0608649439
H -0.1813811682 1.1045714756 0.0000077354
H 1.7382331834 0.0538939867 -1.2739281495
H 1.8649438752 -2.2943815513 -1.5059231099
H 0.3388324762 -2.4851638267 -0.6574808170
H -0.8575046667 -0.8984403568 -4.2905165977
H -0.7945723071 1.6757451379 -3.4910112768
H -0.0779500259 2.0256388596 -1.9851918913