14

N 0.0238057835 1.3665537296 0.1645639139
C -0.0018699489 -0.0029115951 0.0670646594
C -1.1687928083 -0.7119496809 0.0418911320
F -2.3353105562 -0.0508590962 0.0527033237
C -1.2114997434 -2.1478760600 -0.0001832499
N -2.2903376156 -2.8383020522 -0.0241355035
N 0.1064246907 -2.6754528148 -0.0140292010
C 1.2262145898 -1.9098549737 -0.0034638827
N 1.2353587898 -0.6208844016 0.0355921677
H 0.8814974144 1.7936865699 -0.1485661262
H -0.8238324967 1.8481517728 -0.0903939764
H -2.0990617657 -3.8395691170 -0.0562900427
H 0.1981100277 -3.6805015722 -0.0442727038
H 2.1674611489 -2.4529284788 -0.0310156805