11

O 0.1102916382 1.2697809234 -0.0459828998
C 0.0873367094 -0.0579621876 -0.0322693304
N 0.0052582150 -0.6519551565 -1.2207013900
C -0.0124988104 -1.9683368638 -1.1258188832
F -0.0926012218 -2.6162314768 -2.2618747203
N 0.0391337756 -2.7212742177 -0.0429534798
C 0.1191903992 -2.0007993174 1.0734886087
O 0.1750301150 -2.6896311255 2.2075121808
N 0.1478248383 -0.6682360134 1.1538643187
H 0.1708987775 1.5625231143 0.8742721074
H 0.2298788839 -2.0464713790 2.9283295479