16

F 0.5683442287 0.2037729761 -0.0453934892
C -0.0222175234 1.4096752690 -0.0137722461
F 0.9188784437 2.3155651588 -0.3351066874
F -0.9340249737 1.4256414856 -1.0026673750
C -0.6625612220 1.7558567383 1.3022195768
C -1.4512668170 0.8484043187 2.2026964702
C -0.8443606534 -0.5560338472 2.3418172099
C 0.4967230362 0.0849036768 2.8264552430
C -0.1307272550 1.4795031934 2.6796282303
H -1.1056926361 2.7455232911 1.2195503819
H -2.4680932878 1.1121367514 2.4685929219
H -1.3317286222 -1.1237631700 3.1368607134
H -0.8113243600 -1.1709884194 1.4413798196
H 0.7027843986 -0.1510477452 3.8723095657
H 1.3926377296 -0.1179332145 2.2380629329
H 0.0222076740 2.3023050471 3.3679612620