10

F 0.1556206571 0.0901373508 0.0013892272
C -0.0406648753 1.3786805664 0.0109998242
C -1.2176377436 2.0021192072 0.0306880969
C -1.2411789024 3.4725973720 0.0389620773
O -2.2516835695 4.1279540634 0.0566281693
N 0.0431956114 4.1011909610 0.0245354456
C 1.0652835348 3.3743785601 0.0061680588
F 2.2773587472 3.8517903404 -0.0073631025
O 1.1519543530 2.0202766411 -0.0021513465
H -2.1437365329 1.4466864077 0.0405825197