16

C -0.2133659026 1.5488537973 0.1604489094
C -0.0111599035 0.0514755412 0.0418569406
C 1.3532276372 -0.5002555907 -0.3301188337
C 0.8140611494 -0.6828877084 1.0668452231
O 1.3139351908 0.0836022182 2.1197184023
C -1.2078604094 -0.6800071193 -0.5053059662
F -1.5250643817 -0.2491410754 -1.7387005506
F -1.0010734407 -2.0076727564 -0.5915463633
F -2.2939394113 -0.4983234591 0.2646956645
H 0.6420864261 2.0025831221 0.6611251679
H -0.3326190778 2.0024343377 -0.8275373964
H -1.1069163853 1.7704414445 0.7509302412
H 1.4078971881 -1.3670310117 -0.9780145193
H 2.1384395214 0.2351806587 -0.4675624111
H 0.4833138364 -1.6830720295 1.3403427644
H 2.1826819630 -0.2611280992 2.3507523075