12

N -0.0122412284 1.3299565539 0.1652093648
C -0.0282309915 -0.0348475760 0.0289639871
N -1.1427422010 -0.6841690578 -0.0140877404
O -1.0488261709 -2.0764735623 -0.0437933706
C 0.1676723231 -2.7596328188 -0.0205736848
N 0.1901543461 -4.0213534790 0.0120458219
N 1.3459321702 -2.0162642215 -0.0497658018
C 1.2370043034 -0.7629635196 -0.0200594407
F 2.3241056704 -0.0046396847 -0.0570961045
H 0.7922588615 1.8039278321 -0.2142417488
H -0.8976368061 1.7885133956 0.0050373259
H -0.7598079366 -4.3925662719 0.0327910420