15

C -0.0350674598 1.4619508797 -0.0174515617
N -0.0328225155 -0.0001671189 -0.0150942863
C -1.1567706100 -0.7319308223 -0.1202985909
F -2.2789681166 -0.0423887184 -0.2274091080
C -1.1575403046 -2.0925682863 -0.1183988643
C 0.1237872411 -2.6895163033 0.0035983355
N 1.2478352401 -2.0415197992 0.1089417389
C 1.2354874448 -0.6561089008 0.1057996297
N 2.2585956089 0.1041301890 0.2014867713
H 0.5836854934 1.8184029507 -0.8434192906
H -1.0551761729 1.8249796234 -0.1145313445
H 0.4178422773 1.8209764782 0.9088914743
H -2.0759396538 -2.6517928821 -0.2044260618
H 0.1911064431 -3.7771368637 0.0115175448
H 3.0836863046 -0.4873000360 0.2803585736