13

N -0.0227612318 1.3818380430 0.1693696105
C -0.0090075542 0.0088254384 0.0657875261
N -1.1717435650 -0.6419107121 0.0452811392
C -1.1510210682 -1.9797616466 0.0035720692
C 0.0094786329 -2.7378358719 -0.0284817662
C 1.2344065516 -2.0611822512 -0.0214257838
C 1.2118751828 -0.6887504964 0.0273244120
F 2.3499101476 0.0288676532 0.0280053701
H 0.8017751990 1.8645800031 -0.1500275748
H -0.9014715935 1.8074959785 -0.0831137770
H -2.1241745865 -2.4637996454 -0.0081500567
H -0.0314776822 -3.8194234745 -0.0648497103
H 2.1854440274 -2.5806004583 -0.0532010382