15

C -0.0254184721 1.4984225164 0.0595951470
C 0.0103280811 -0.0034503604 -0.0252256526
C -0.1215343865 -0.6905907632 -1.2288834161
C -0.0804024622 -2.0853889488 -1.2453086036
C 0.0927817753 -2.7632219732 -0.0493217241
O 0.1414327925 -4.1177297845 0.0031541321
C 0.2139451964 -1.9680086882 1.0965688844
F 0.3822450767 -2.6274211678 2.2586502667
N 0.1785939335 -0.6695052905 1.1349750527
H 0.9048747133 1.8826304814 0.4906078075
H -0.1646896982 1.9509252654 -0.9250336161
H -0.8399583333 1.8285691194 0.7125591109
H -0.2562638450 -0.1421842787 -2.1541749680
H -0.1801589630 -2.6482992898 -2.1663912410
H 0.2667062616 -4.3717148775 0.9258336803