16

C -0.0472632186 1.5258553055 0.0318223589
C -0.0053512132 0.0176466414 -0.0048799528
C -0.0657987644 -0.6853495744 -1.2090561241
C -0.0244779761 -2.0782936219 -1.2496099972
C 0.0792905705 -2.8053957156 -0.0701364615
O 0.1204863742 -4.1641218314 -0.0898205031
C 0.1389325760 -2.0966432312 1.1313558561
F 0.2389067577 -2.8268813674 2.2636811579
C 0.0988194462 -0.7190137515 1.1823076470
H 0.8751176935 1.9446251426 0.4506881385
H -0.1736808363 1.9408445833 -0.9715097446
H -0.8747928339 1.8909838091 0.6505195233
H -0.1473218624 -0.1351646658 -2.1410933642
H -0.0723133121 -2.6158400378 -2.1897051028
H 0.1922032304 -4.4684931320 0.8230876774
H 0.1491051886 -0.2301316329 2.1495034811