14

C 0.0698098874 1.3954198417 0.0069527679
O -0.0083161278 -0.0216526477 0.0029692164
C -1.2385919897 -0.5845883123 0.0108672237
C -2.4604269475 0.0873681823 0.0227747926
N -3.6263428048 -0.5701800887 0.0297683309
C -3.5449034859 -1.8829219404 0.0244649329
F -4.6947052102 -2.5349023209 0.0326652005
N -2.4588030658 -2.6412845022 0.0137610721
C -1.3057350518 -1.9833684168 0.0068672426
H 1.1325072111 1.6395909254 -0.0006320259
H -0.4075429764 1.8261640582 -0.8822365329
H -0.3934440236 1.8203535093 0.9063368945
H -2.5220899659 1.1704635834 0.0268658134
H -0.3882095091 -2.5660910513 -0.0022342087