16

C 0.0558843997 1.3656052348 0.0067174895
O -0.0495428042 -0.0640329456 0.0038249253
C -1.2846254056 -0.5679375863 0.0115778203
N -2.3444611426 0.1798321920 0.0214666135
C -3.5368857260 -0.5101014357 0.0283490357
C -3.6549720019 -1.8598624559 0.0255243548
C -2.4683263066 -2.6944402106 0.0144735884
N -2.3281018858 -3.9678841652 0.0099854113
N -1.2915242968 -1.9214937959 0.0078729041
H 1.1258494724 1.5732943805 -0.0017522975
H -0.4272586301 1.7885352060 -0.8767615731
H -0.4121768551 1.7837995835 0.9005319557
H -4.4225965464 0.1189592859 0.0366130216
H -4.6251308463 -2.3405446606 0.0313799302
H -3.2406968635 -4.4192727343 0.0155138012
H -0.4155293012 -2.4262994026 0.0000093993