20

C -0.0598020197 1.5160729470 -0.0021732434
C 0.0359135047 -0.0000068735 0.0185750417
C -1.1668731259 -0.6826329968 -0.6083926822
C 1.3799744320 -0.6515878078 -0.1426300719
C 0.7036385206 -0.6878753731 1.2237456089
C 1.3152167335 0.0887622929 2.3915973573
O 2.3862053825 -0.6052563933 2.9972274017
C 0.1689798736 -1.9520511797 1.6652506974
N -0.2341874722 -2.9539256773 2.0836920193
H 0.8454195899 2.0067293692 0.3606581552
H -0.2224035690 1.8553393785 -1.0312098699
H -0.9051745632 1.8694291730 0.5982321056
H -1.2613016779 -0.3815563684 -1.6575020089
H -1.0873147616 -1.7715544651 -0.5742643896
H -2.0916422622 -0.3989303595 -0.0942852297
H 1.4452742053 -1.5802289492 -0.6984390343
H 2.2619954838 -0.0230878204 -0.2103291195
H 1.7359243844 1.0288178546 2.0304342683
H 0.5277193811 0.3321933142 3.1203026423
H 2.0371308605 -1.4172719653 3.3823928417