15

C -0.0198193670 1.5182783846 0.0659650647
C 0.0017608582 0.0194410521 -0.0257353729
C -0.0266167962 -0.6831490609 -1.1902129197
C -0.0046716897 -2.1410032499 -1.2532661842
O -0.0279392615 -2.7970218000 -2.2877390701
C 0.0525012675 -2.7539590037 0.0803787618
F 0.0777703031 -4.0818302608 0.1501935183
C 0.0795355216 -2.0281806235 1.2192250237
N 0.0542632835 -0.6554930991 1.1663332972
H 0.8781472415 1.8982662066 0.5674288269
H -0.0645439386 1.9596362828 -0.9299823391
H -0.8897876652 1.8688311376 0.6338173686
H -0.0679485755 -0.1541687509 -2.1347217400
H 0.1213015819 -2.4858299407 2.1988703220
H 0.0752712865 -0.1357839541 2.0277830028