14

C -0.0284667723 1.4070676186 -0.0481430831
N -0.0008756731 -0.0516165476 -0.0234586574
N -0.0260127418 -0.6670002280 -1.2190554111
C -0.0021224672 -1.9547164407 -1.2156188566
F -0.0272142163 -2.5531832090 -2.4020281445
C 0.0486156480 -2.7656540808 -0.0488594703
C 0.0735058398 -2.1334299581 1.1478652495
C 0.0489377491 -0.6800517740 1.2307042498
O 0.0684725361 -0.0167863727 2.2559015367
H 0.8630618493 1.8043444586 0.4435452740
H -0.0662427650 1.7177431126 -1.0901718859
H -0.9020881106 1.7718313015 0.4978713945
H 0.0656353502 -3.8450043851 -0.1480373932
H 0.1122855737 -2.6654447553 2.0903412175