10

F -0.3310873825 0.1022269431 -0.2371191028
C -0.0167799088 1.3725359247 0.0222041172
F 1.3100020191 1.4637252637 0.1513894311
F -0.3927284529 2.1118516533 -1.0227455404
C -0.6724935258 1.8462250102 1.2853717596
C -0.1542976933 2.3158329438 2.4468843663
N -1.2303942673 2.5992350921 3.2567049255
N -2.3108124326 2.3400768779 2.6779752997
O -1.9957662160 1.8356268348 1.3620958816
H 0.8645302800 2.4678806964 2.7558360822