13

F 0.2492607647 0.1603080398 -0.4782280464
C 0.1144467161 1.4488256691 -0.2050942448
C -1.1555561368 2.0088487524 -0.2062628324
C -1.2707155345 3.3615223781 0.0830814276
C -0.1128401755 4.0913815200 0.3599440205
N 1.1003679508 3.5502486019 0.3597009673
C 1.2305230047 2.2442071863 0.0821948370
C 2.6328333019 1.7376584268 0.1083352229
O 2.9783664839 0.6034052418 -0.1097468158
H -2.0135904055 1.3855133039 -0.4297576103
H -2.2410727059 3.8450407750 0.0945526315
H -0.1706011321 5.1516491352 0.5899612294
H 3.3492607782 2.5481076497 0.3594897836