12

O 0.1104379230 1.3098322025 -0.0208677566
C 0.0804011216 -0.0364874849 -0.0315961912
C -0.0342630574 -0.7209142432 -1.2396691587
N -0.0640588666 -2.0575431565 -1.2497584412
C 0.0164396298 -2.6857062037 -0.1109010023
F -0.0121185626 -4.0139604196 -0.1084663779
C 0.1322453511 -2.0009143447 1.1109473313
O 0.2122371137 -2.6900513421 2.2594289354
N 0.1629215094 -0.6787700484 1.1354609777
H 0.1926344978 1.5844609990 0.9018857045
H -0.1008330812 -0.1933638997 -2.1834506299
H 0.2852030314 -2.0399191489 2.9720017889