15

C -0.0121098201 1.5194357246 0.0102972029
C -0.0108289724 0.0105612733 0.0021903545
C -0.0041750221 -0.6907030165 -1.2064957796
C 0.0267320754 -2.0774670785 -1.1916891648
F 0.0303790726 -2.7367876502 -2.3542406501
C 0.0488680942 -2.8097647019 -0.0134410481
C 0.0395665301 -2.0903249457 1.1728296499
F 0.0557894380 -2.7621811702 2.3280719118
C 0.0089020236 -0.7037655362 1.2030121824
H 1.0119169015 1.9119436462 0.0027189750
H -0.5216976766 1.9223799513 -0.8691167969
H -0.5051011872 1.9128885572 0.9033315789
H -0.0246328758 -0.1728753333 -2.1583750933
H 0.0677787933 -3.8914267488 -0.0194258288
H -0.0011813745 -0.1963029113 2.1606182460