12

N -0.0284762341 1.3875886185 0.1716084388
C -0.0224260816 0.0163004116 0.0632874158
N -1.1701719165 -0.6525342081 0.0440443822
C -1.1210296008 -1.9894557903 0.0020830635
C 0.0948966294 -2.6486235666 -0.0303805461
F 0.1446873380 -3.9748014624 -0.0739132398
N 1.2541640500 -2.0069489077 -0.0271858794
C 1.1881038494 -0.7083576883 0.0201901202
F 2.3303186265 -0.0192512532 0.0150059973
H 0.7978179579 1.8657896010 -0.1503130332
H -0.9041587721 1.8249116768 -0.0720399969
H -2.0574737260 -2.5359497414 -0.0115049525