14

N 0.0531788250 1.4729422230 0.1378341324
C 0.0327114140 0.0626371079 0.0357559590
C -1.0945128521 -0.6727647604 0.0065030375
F -2.3077329614 -0.1446736294 0.0092664080
O -1.1545033134 -2.0072548459 0.0109479849
C 0.0133373956 -2.7962896347 -0.0228511088
N -0.0729421474 -4.0610956693 -0.0602924352
C 1.2511558801 -2.0468837408 0.0006967576
C 1.2565640579 -0.6976853321 0.0397802648
H 0.6019416931 1.8985112830 -0.6018509198
H -0.8817968222 1.8609568522 0.1063810912
H -1.0455668255 -4.3660841962 -0.0659908832
H 2.1593783822 -2.6338752603 -0.0038177133
H 2.1921017241 -0.1488494670 0.0804331149