17

C -0.0533317272 1.5477148936 0.0173109382
C -0.0633940178 0.0159897867 0.0115313369
N 0.5441409335 -0.4834587118 1.2501678698
C -1.5169706408 -0.5221666506 -0.0139147685
O -2.2025153709 -0.1431594195 1.1553808314
C 0.6944229979 -0.5011910111 -1.2196879656
F 1.9507920925 -0.0279487678 -1.2624737735
F 0.7827860182 -1.8460176159 -1.2079579541
F 0.0913578641 -0.1525410901 -2.3665763669
H 0.9591709211 1.9360157646 0.1584787074
H -0.4386430749 1.9365812430 -0.9281000856
H -0.6922489167 1.9024203851 0.8271166073
H 0.7457338189 -1.4762144487 1.1682160184
H 1.4232898288 -0.0123179839 1.4364414451
H -2.0586168149 -0.1078058650 -0.8682298401
H -1.4889388215 -1.6170858160 -0.1330043570
H -1.5756978003 -0.3035631528 1.8763607867