12

N 0.0602019120 1.3449316307 -0.1559745971
C 0.0012889284 0.0115334702 -0.0388072276
C -1.1263184070 -0.7376501219 0.0831801696
F -2.3329871186 -0.1680036247 0.0958075037
N -1.1139805593 -2.0826520905 0.1982147511
N -0.1056739044 -2.7875681995 0.2073098576
O 1.2083070167 -2.0605631725 0.0775102979
C 1.2791956752 -0.7198765172 -0.0415706490
N 2.3625224242 -0.0596908529 -0.1538563320
H 0.9778089440 1.7556076393 -0.2399603247
H -0.7713113003 1.9077011926 -0.1638590283
H 3.1770191291 -0.6719653636 -0.1429609512