15

N -0.0184447562 1.3966675294 0.1296928914
C 0.0221678177 0.0079303807 0.0517282123
N -1.1510389420 -0.6267990498 0.0451310276
C -1.1534224143 -1.9624342025 0.0430416560
C -0.0114658265 -2.7612228298 0.0323723235
N -0.0353085793 -4.1618635576 0.0890230387
C 1.1980699353 -2.0589570134 0.0219951419
F 2.3356281113 -2.7684396776 -0.0103875881
C 1.2451353834 -0.6833910112 0.0369585009
H 0.7427635165 1.8829026129 -0.3202988252
H -0.9244436961 1.7658590460 -0.1225976297
H -2.1321365722 -2.4397450143 0.0434633922
H -0.8519106716 -4.5687353353 -0.3462802161
H 0.8091258984 -4.5830182744 -0.2735205000
H 2.2004067756 -0.1724004931 0.0407621346