14

O 0.0896168818 1.5167269933 0.0165557306
C 0.0361011843 0.1213098812 0.0007800345
C 0.6966332559 -0.4630834869 -1.2600153628
C -0.1014529155 -0.1941267693 -2.5240078904
F -0.1795093529 1.1049337617 -2.8160745739
F 0.4626887368 -0.8144499017 -3.5734321652
F -1.3580136462 -0.6619535168 -2.4102353358
C 0.6916750534 -0.4512970900 1.2454644824
O 1.1472893499 0.2638186595 2.1025252163
H 0.5068130526 1.7551128010 0.8600316115
H -1.0114909278 -0.2312164584 0.0200800613
H 1.6943501176 -0.0353732573 -1.3884776799
H 0.7903692169 -1.5506501487 -1.1734797251
H 0.7175889433 -1.5570763178 1.3277705863