16

C 0.0161308981 1.4588300320 0.0487501810
N -0.0818548922 0.0200950974 -0.0948310049
C 0.5677985446 -0.6481442211 -1.0964485762
N 1.1239191850 0.0410553718 -2.0934524531
C 1.7169871703 -0.6392857536 -3.0844723236
C 1.8021649822 -2.0200975581 -3.1381478313
C 1.2327911282 -2.7532909743 -2.0872395499
C 0.6199575226 -2.0590209203 -1.0774332628
F 0.0555374183 -2.6951055852 -0.0327847611
H 1.0341920145 1.7945342064 0.2897825766
H -0.2798910132 1.9464919935 -0.8824453859
H -0.6597793234 1.7762557443 0.8458533995
H -0.2958439847 -0.5241967275 0.7235214045
H 2.1502860792 -0.0314957475 -3.8748464289
H 2.2981178923 -2.5177248710 -3.9622361592
H 1.2625596482 -3.8364190367 -2.0514131948