14

C 0.0334868632 1.5173527319 0.2186265444
C -0.0313710296 0.0400230251 -0.0201616251
C -1.1683977499 -0.6704875478 0.0270007273
O -1.2046543479 -2.0171435099 -0.1939695073
C -0.0489911509 -2.7079324848 -0.4802243166
N -0.0179066022 -3.9537960026 -0.6948770648
C 1.1484354951 -1.8509221362 -0.5112146678
F 2.2674015417 -2.4892174699 -0.7825266716
N 1.1792640813 -0.6002717189 -0.3051578730
H 0.6953399391 1.7413966651 1.0619405995
H 0.4435127691 2.0307413334 -0.6575471385
H -0.9553855042 1.9299022271 0.4329768232
H -2.1516442305 -0.2731566983 0.2376686060
H -0.9528505742 -4.3584430042 -0.6260419857