15

C 0.0164235962 1.4964510361 0.0144916312
C -0.0360753899 -0.0005420897 0.0231030072
C -1.1751532986 -0.7312413255 0.0943892615
F -2.3507928609 -0.1099644579 0.1625915645
C -1.1660576534 -2.1816950944 0.0995346815
N -2.2547769454 -2.8670670786 0.1676321362
C 0.2019978069 -2.7052052767 0.0194111765
N 1.2932903271 -2.0092715580 -0.0489122171
N 1.1619287298 -0.6763071840 -0.0462942515
H 0.5934390610 1.8752761701 0.8657849060
H 0.4877968867 1.8689132053 -0.9021434276
H -0.9921730360 1.9037349489 0.0733195172
H -2.0377125868 -3.8661096612 0.1585107467
H 0.3378763452 -3.7837722150 0.0155085033
H 2.0298081982 -0.1695052094 -0.1004228056