15

C -0.0119004864 1.5219307574 0.0137820418
C -0.0063964778 0.0129183160 -0.0007234065
C -0.0347331601 -0.6984266670 -1.2031008286
C -0.0081960649 -2.0913736339 -1.2091438523
C 0.0451685689 -2.8048517506 -0.0157768262
C 0.0704911819 -2.0881231856 1.1726611348
F 0.1182945245 -2.7552387291 2.3329436790
C 0.0448083378 -0.7026321189 1.1995463973
H 0.9855943675 1.9192429189 0.2370026741
H -0.3190309213 1.9281200450 -0.9533849930
H -0.6913060063 1.9124141612 0.7780011408
H -0.0789729398 -0.1565117714 -2.1422938090
H -0.0324705206 -2.6277557497 -2.1518827934
H 0.0638289803 -3.8876728781 0.0091296321
H 0.0636119563 -0.1941905141 2.1575691191