10

F -0.0014852680 0.0548467003 0.0041217167
C -0.0664676342 1.3697630327 0.0115888057
N -1.1991917975 1.9471335040 0.0291609754
C -1.1975092519 3.3302203474 0.0359074863
C -0.0492504919 4.0268838994 0.0242502303
O 1.1573255181 3.4121234324 0.0056210366
C 1.2581752879 2.0334678470 -0.0020791461
O 2.3280312144 1.5013997606 -0.0195110650
H -2.1589163721 3.8255511135 0.0507974572
H 0.0364270553 5.1052916227 0.0282960129