10

O -0.0923006266 -0.0275496482 -0.0019181912
C -0.0494512442 1.1587451677 0.0077342687
N 1.1862737491 1.8950128266 0.0006535006
N 2.4151483997 1.3405001348 -0.0174662582
N 3.2508586696 2.3230671659 -0.0181421803
C 2.4966617148 3.4728427251 0.0000033569
N 1.1980070132 3.2260851830 0.0121306621
C 3.0564471356 4.7797514179 0.0052385546
N 3.5211363701 5.8374848211 0.0093482889
H -0.8941434111 1.8627302262 0.0231777077