10

F 0.0512182026 0.0158563629 -0.2062958365
C -0.0924047625 1.3102787032 -0.0668594536
C -1.2289410750 1.9099861945 0.2554832893
O -1.2941648951 3.2818704327 0.3822935294
C -0.1954889881 4.0518454816 0.1801722688
O -0.2412313865 5.2369566495 0.2870265663
C 1.1168855737 3.3333079313 -0.1942470266
O 2.1326186823 3.9130415562 -0.3921043614
O 1.0733931241 1.9587312426 -0.2951902928
H -2.1615693956 1.4033004554 0.4390954771