14

C -0.0034134342 1.5100859496 -0.1050216633
C -0.0125595212 0.0183045637 -0.0168864918
C -1.1072080815 -0.7333206269 0.1864304309
F -2.3201068255 -0.2035602873 0.3323713968
C -1.0271545350 -2.1664257795 0.2580921527
N 0.0658355075 -2.8319025198 0.1374452106
O 1.2190675702 -2.0944887064 -0.0736091068
C 1.2500785564 -0.7020690417 -0.1589829268
N 2.3524881453 -0.1064159136 -0.3539775636
H 0.6589901008 1.9263984131 0.6601091763
H 0.4074088741 1.8257788613 -1.0689180231
H -1.0071558658 1.9182422691 0.0173102842
H -1.9227612308 -2.7563320392 0.4229766767
H 3.1211770096 -0.7735152523 -0.4271191929