14

O -0.0030249682 1.3397214098 0.0425566698
C -0.2751080257 -0.0154455778 0.2649503363
C -1.2856990930 -0.5105003651 -0.7588218211
O -1.7263508430 0.1776941160 -1.6395860240
C -1.7068740266 -1.9814227559 -0.6096900346
C -2.8398099789 -2.1692308051 0.3869374723
F -3.9030465760 -1.4226672914 0.0766191970
F -3.2321957265 -3.4497734171 0.4244060695
F -2.4629480160 -1.8329524548 1.6368307106
H 0.5767779995 1.6481276708 0.7448435439
H 0.6216232754 -0.6555886502 0.1672582346
H -0.6916521384 -0.2196587947 1.2644897803
H -2.0597727975 -2.3320376512 -1.5809671978
H -0.8751955051 -2.6092105734 -0.2771770867