14

N -0.0309224844 1.4089984218 0.1780554086
C -0.0160417382 0.0162780965 0.0446758987
C -1.1627615387 -0.7714310814 -0.0141265073
N -1.1570793380 -2.1092110154 -0.0775086153
C 0.0115410912 -2.7303862195 -0.0843300665
O 0.0110142112 -4.0825780247 -0.1449531664
C 1.2408994292 -2.0641224604 -0.0365344749
C 1.1946556582 -0.6900133509 0.0266107560
F 2.3301283834 0.0191847873 0.0624395846
H 0.8230888796 1.8469221690 -0.1383255747
H -0.8396696506 1.8505410270 -0.2367055237
H -2.1403207802 -0.2940403827 -0.0084800104
H -0.9199481134 -4.3424201031 -0.1706214535
H 2.1819837808 -2.5969946737 -0.0522504051