11

F 0.0757163702 0.0498037308 0.0933119763
C -0.0822968274 1.3438537572 -0.0397019544
C -1.2308516232 2.0055722056 0.1728589946
N -1.2730098193 3.3794433521 -0.0014235474
C -0.1975802396 3.9837543200 -0.3655867288
C 1.0827555458 3.3207218745 -0.6127271021
N 2.1388528093 3.9138220677 -0.9701843013
O 1.0558812553 1.9261469472 -0.4174503712
H -2.1306182318 1.4918297858 0.4786237069
H -0.2055962697 5.0601677369 -0.5086404196
H 2.9191681102 3.2677052322 -1.0880820231