16

C -0.0055538459 1.5227126242 0.0111943656
C -0.0076276434 0.0162924115 0.0082945181
C -0.0661061792 -0.7189289552 -1.1700997641
N -0.0705061515 -2.0561186502 -1.2414390873
C -0.0247096050 -2.7524454449 -0.1094818811
N -0.0916579626 -4.1292863376 -0.1692772510
C 0.0447034092 -2.0946400038 1.1313028201
F 0.1130782926 -2.8471163988 2.2447509815
C 0.0553372083 -0.7242927558 1.2001399815
H 0.8931047054 1.9259234009 0.4921330579
H -0.0402719039 1.9144032739 -1.0090191418
H -0.8687890952 1.9277457780 0.5519169128
H -0.1081394415 -0.2000362368 -2.1255533166
H 0.1463513205 -4.5106679360 -1.0724470437
H 0.2923463070 -4.6256162650 0.6193100782
H 0.1126947052 -0.2418433942 2.1705802398