14

N 0.1092311205 1.3631903440 0.1582845433
C -0.0317294330 -0.0171174521 0.0467069871
C -1.2105445886 -0.6954356725 0.0229814104
C -1.2304501929 -2.1386707723 -0.0054360540
N -2.3100793564 -2.8401379531 -0.0240782984
C 0.1351438282 -2.6948769390 -0.0269600374
F 0.2248571610 -4.0199041939 -0.0569612205
N 1.2418097476 -2.0573310425 -0.0102836195
N 1.1557188127 -0.7031030699 -0.0033394899
H 0.7865988050 1.7637271524 -0.4792475892
H -0.7720359806 1.8528578382 0.0913061035
H -2.1537099310 -0.1642894092 0.0097713763
H -2.0756339066 -3.8327842788 -0.0566928885
H 2.0199716041 -0.2416094913 0.2281453768