13

F 0.0248084429 0.1623695561 -0.0155066858
C -0.0198150749 1.4819342017 0.0715728234
F 1.2402220502 1.9397009056 0.2195660982
F -0.4951659627 1.9764574050 -1.0750307182
C -0.8589661855 1.9315229058 1.2967494992
O -1.1051574054 1.1679358427 2.1955760999
N -1.2985796668 3.2295820562 1.2030478263
C -0.4885087212 4.4279182151 1.0685139063
C -1.3143641660 4.1702381276 2.2971894981
H 0.5884351360 4.3151179560 1.1446448550
H -0.8311868153 5.1436729569 0.3275613972
H -2.2440671450 4.7122816108 2.4397218125
H -0.8037937763 3.8712835105 3.2084436078