20

C -0.0738879748 1.6103508595 0.0428129549
C -0.0022395869 0.0815073190 -0.0103651444
C 0.7930620701 -0.5064800434 1.1607651951
C 0.8242381944 -2.0461677619 1.1930083703
C 1.5781208643 -2.6721474040 0.0115421854
C 1.4266168792 -2.5300841238 2.5056918332
F 0.7431048450 -2.0714460992 3.5686344478
F 1.4237874113 -3.8720455033 2.5894802481
F 2.7019589787 -2.1269801907 2.6502460443
H 0.9271275884 2.0541802472 0.0074916003
H -0.6455234156 2.0110540762 -0.7998072687
H -0.5541312465 1.9527021149 0.9659565916
H -1.0186658486 -0.3342593964 -0.0033253764
H 0.4465483730 -0.2240731862 -0.9627454669
H 1.8235479087 -0.1304153740 1.1340448003
H 0.3584436215 -0.1467882385 2.1002364613
H -0.2074599314 -2.4205358511 1.1995219323
H 1.6022324289 -3.7608919596 0.0969628056
H 1.0934981638 -2.4182659646 -0.9333020867
H 2.6099608462 -2.3094167099 -0.0244806973