15

C -0.0133953891 1.5305162175 -0.0069867176
C -0.0182357802 0.0283887050 0.0017322795
C -1.1592738579 -0.6934342702 -0.1075600731
C -1.1659831468 -2.1376792014 -0.0993434514
N -2.1934541691 -2.8711602205 -0.1976424168
O 0.1126461729 -2.7456113422 0.0325948383
C 1.2080839045 -2.0042737377 0.1369527482
F 2.2718126525 -2.7680668368 0.2480552858
C 1.2435330559 -0.6638269769 0.1319002229
H 0.5995767632 1.9106285312 -0.8325708557
H -1.0220926460 1.9350791270 -0.1101739849
H 0.4246238366 1.9213200781 0.9188850784
H -2.1298500062 -0.2254661661 -0.2072825523
H -1.9495530851 -3.8601889076 -0.1671247753
H 2.1867378749 -0.1450229594 0.2225902942