10

F 0.0152613941 0.0781740979 0.0038053040
C -0.0316960618 1.3885090296 0.0112083482
N -1.1639419822 1.9794932335 0.0291900662
C -1.1407490134 3.3539267235 0.0361516950
N -0.0816650683 4.1025841451 0.0261403689
N 1.0899013133 3.4386286819 0.0073108331
C 1.2851974051 2.0637986877 -0.0023672041
O 2.3750501521 1.5372344959 -0.0194969185
H -2.0973917165 3.8598420318 0.0513188874
H 1.9192563476 4.0192886531 -0.0005439403