15

O 0.0173190685 1.4272756559 0.0085635450
C -0.0043678751 0.0129798478 0.0036683742
C -1.4325582469 -0.4779060412 0.0140626803
N -1.5750195931 -1.8092767590 0.0124299411
C -2.8158299456 -2.2959141852 0.0211319547
C -3.9642569181 -1.5086799766 0.0317951157
C -3.7792346791 -0.1351775856 0.0332080703
F -4.8383823662 0.6726360460 0.0432204771
C -2.5051724403 0.4105758264 0.0243180768
H 0.9338870680 1.7150109804 0.0009282581
H 0.4937306807 -0.4031065474 -0.8857293287
H 0.5088074055 -0.4095662271 0.8813426850
H -2.9065264616 -3.3794975275 0.0195947495
H -4.9578935122 -1.9384175694 0.0387280016
H -2.3475498444 1.4798669926 0.0253325394