13

C 0.0137188079 1.5016383701 0.0099298820
C 0.0128523655 0.0476915373 -0.0476005498
C 0.0096815443 -1.1538474891 -0.0945458988
C 0.0035884342 -2.6073713651 -0.1508418518
C -1.3701988579 -3.2112812112 0.1236860504
F -2.2797593513 -2.8061347608 -0.7695282017
F -1.3014182093 -4.5512509956 0.0557250814
F -1.8212392864 -2.8896526476 1.3412247078
H 0.7361200843 1.8698194199 0.7463451490
H 0.2738161534 1.9378835723 -0.9605068067
H -0.9731536451 1.8835805638 0.2925628763
H 0.3181280993 -2.9694183052 -1.1361342465
H 0.6920914213 -3.0376461288 0.5851219083