15

C -0.0160774232 1.5384958635 0.0046505043
C 0.0029321522 0.0341550452 0.0127680217
C 0.0722498739 -0.6993955872 -1.1712199245
F 0.1215066054 -0.0127227206 -2.3210677459
C 0.0923300886 -2.0845196634 -1.2147259031
C 0.0406755837 -2.7872458681 -0.0133503494
C -0.0293345784 -2.1071994809 1.1980009278
C -0.0465628860 -0.7188090529 1.1842545725
F -0.1141390677 -0.0703184060 2.3555099022
H 0.8835620068 1.9401260194 -0.4726915360
H -0.8729444242 1.9174474681 -0.5616407466
H -0.0725728680 1.9282569915 1.0209802417
H 0.1472423246 -2.5856608478 -2.1730874962
H 0.0551348275 -3.8711427059 -0.0225803127
H -0.0706072258 -2.6267876450 2.1472088036