8

N 0.0349066476 -1.1282263216 -0.0038504529
C 0.0025167298 0.0263510207 0.0028249505
C -0.0238974585 1.4525546658 0.0108874201
N -1.1556982919 2.1190611872 0.0295176996
O -0.7364844205 3.4390738653 0.0311122736
C 0.6007213698 3.4191182292 0.0132301353
N 1.1130275613 2.2312694450 -0.0000011025
H 1.1098552624 4.3713536684 0.0116226664