15

C 0.0519529631 1.4540512462 0.0778143835
N -0.0234634819 0.0245352787 -0.1428984711
C -1.2126710542 -0.6579837421 -0.0519445234
C -2.4863726078 -0.0819300492 -0.0245497902
N -3.6124912561 -0.8065067794 0.0182695783
C -3.4770685302 -2.1230106588 0.0458937245
N -2.3120362259 -2.7939279115 0.0418764354
C -1.2376211142 -2.0645758546 -0.0052839444
F -0.0562223310 -2.6911641957 0.0002471765
H 1.0960757085 1.7646081618 0.0113565240
H -0.5052909516 1.9947418120 -0.6953806297
H -0.3420823321 1.7605183172 1.0585970554
H 0.7901960674 -0.5162118179 0.1004131288
H -2.6034170307 0.9973008388 -0.0400258343
H -4.3807995232 -2.7228994155 0.0795174565