19

O 0.1011779143 1.3646963295 0.3158626233
C 0.0246002713 -0.0000068884 -0.0731013602
C -1.3595392530 -0.5668261689 0.0489978879
C -1.8745533011 -1.6469288759 -0.8218915193
N -2.4503305122 -0.2994210283 -0.9894143932
C -3.4439159829 -0.1555010244 0.1427613568
C -2.3333555694 -0.3139594787 1.1844743452
C -2.2763353580 -0.7832994130 2.5867122087
N -2.1480940190 0.6498573248 2.2578997668
H -0.5354511078 1.8485414212 -0.2229233584
H 0.3817461738 -0.1475200962 -1.1035238517
H 0.7134867718 -0.5367771293 0.5903443134
H -1.2598580093 -1.9572174428 -1.6623780064
H -2.4920391361 -2.4353509927 -0.3963782403
H -3.8789576062 0.8458097434 0.1468733372
H -4.2405242805 -0.9061531608 0.1176320184
H -3.1879661853 -1.0500736476 3.1152682736
H -1.3938761588 -1.3365424082 2.9018781872
H -1.1791372714 0.9580177664 2.2832455709