13

C -0.0155577211 1.3888589739 0.0094297514
O 0.0256286473 -0.0417376901 -0.0438422191
C 0.6247331575 -0.5986803238 -1.0926171166
N 0.6263462919 -1.9455449690 -1.0771313094
C 1.2154704008 -2.5082079527 -2.1080548834
C 1.7781137193 -1.7052432680 -3.1108328181
F 2.3720784403 -2.2708574551 -4.1503706034
N 1.7471351981 -0.4001228278 -3.0739585988
N 1.1514721713 0.1855279494 -2.0318253219
H 0.9939874238 1.8073783445 0.0243509790
H -0.5512323318 1.7955277056 -0.8521011098
H -0.5420052880 1.6243582198 0.9343943020
H 1.2555932207 -3.5931011267 -2.1641070320