9

F 0.0146503306 0.0921173830 0.0034480834
C -0.0113100578 1.3989830516 0.0105759981
N -1.2072638736 1.9637459788 0.0299350296
C -1.1549561536 3.2958344386 0.0361341863
N -0.0485914454 4.0395187974 0.0248045136
C 1.0598167784 3.3179193240 0.0058367034
F 2.1857924697 3.9817391589 -0.0061682494
N 1.1665346424 1.9999103661 -0.0024702614
H -2.1034744107 3.8253256416 0.0519095765