14

N -0.0499226566 1.3918809540 -0.1441938746
C -0.0196751733 0.0113266034 -0.0598956251
N -1.1691899406 -0.6461018569 0.0228864146
C -1.1616213886 -1.9865289391 0.0411209995
C 0.0118872661 -2.7086963270 -0.0130736758
F -0.0082589258 -4.0479218174 0.0103660854
C 1.2363366626 -2.0451241612 -0.0856134749
C 1.2240041197 -0.6643390701 -0.1104110023
O 2.3420342707 0.1183430793 -0.1719798636
H 0.7845871188 1.8649304164 0.1667011171
H -0.9137080181 1.7963487654 0.1851856813
H -2.1182632852 -2.4953539457 0.1059161267
H 2.1622571388 -2.6103170506 -0.1204767780
H 3.1271604015 -0.4388471004 -0.1786401203