12

N 0.1076651564 1.3025521807 0.1123725900
C -0.0370151549 -0.0392683339 0.0382631316
N -1.1663552516 -0.6331203518 0.0187472721
C -1.2161309186 -2.0415280984 -0.0058604498
O -2.2681863391 -2.6398032685 -0.0184375969
C 0.0902138578 -2.7274289243 -0.0209357035
C 1.1962067180 -1.9879511391 -0.0094614694
F 2.4271660059 -2.4359500312 -0.0257583344
O 1.2073923359 -0.6404882313 0.0210987360
H 1.0008801917 1.7128340127 -0.0990493476
H -0.7238747410 1.8505889259 -0.0274012664
H 0.1372131995 -3.8059710008 -0.0448495117