13

C 0.0027397661 1.5608362205 0.0476838346
C -0.0427734102 0.0264515673 -0.0013491311
N -1.3786998219 -0.5653800901 0.0001508814
C 0.6894563824 -0.4952362385 -1.2371543246
F 1.9229444451 0.0313440057 -1.3271226870
F 0.8200041948 -1.8224695659 -1.2274748722
F 0.0280435055 -0.1592130928 -2.3621749155
H 1.0294232920 1.9351747668 0.0727805961
H -0.4969960444 1.9868852587 -0.8282134108
H -0.5156409385 1.9145568537 0.9434487656
H 0.5039427713 -0.3837163532 0.8554062919
H -1.8537167209 -0.3316729915 0.8655976727
H -1.9290742412 -0.1641236307 -0.7541180611