14

C -0.0635317026 1.5169759858 0.0184322422
C -0.0004961075 0.0183943416 -0.0085353431
N 0.0121039403 -0.6066895160 -1.1869388184
C 0.0686825244 -1.9369434440 -1.1617202541
O 0.0798176021 -2.5345715435 -2.3630713985
N 0.1147587702 -2.7288394804 -0.0888631277
C 0.1021914040 -2.1043896978 1.0908629611
C 0.0449049614 -0.7275284237 1.1708690256
F 0.0326596876 -0.1087778881 2.3573067650
H 0.8049761726 1.9332727915 0.5396897632
H -0.0925873457 1.9001065992 -1.0015380634
H -0.9505926471 1.8590643405 0.5619328337
H 0.1219976545 -3.4847215777 -2.1923783165
H 0.1384405658 -2.7116585672 1.9915092509