15

C 0.1363078685 1.4608699212 0.0067724229
N 0.0391388992 0.0109001776 0.0042746278
C -1.0855359509 -0.6068633555 0.0111041550
C -1.1258168563 -2.0621210868 0.0081804987
C -2.2984956686 -2.7311145206 0.0137581486
N -3.4844288149 -2.0555012421 0.0219069203
N -3.5647625564 -0.7110461375 0.0280239275
C -2.4602917540 -0.0580577881 0.0227348294
F -2.5995189824 1.2647572912 0.0284809804
H 1.1959099530 1.7316558236 -0.0019960992
H -0.3350757598 1.9219321887 -0.8708124253
H -0.3193121814 1.9176745955 0.8948417912
H -0.1815526374 -2.5896666057 0.0009807522
H -2.3787999925 -3.8113493904 0.0114052251
H -4.3733094960 -2.5242430010 0.0302212954