15

C 0.0209314026 1.5055832280 0.0447126937
C 0.0237813658 -0.0003897375 0.0267900773
C -0.0458581576 -0.7269546294 -1.1556003957
N -0.0475858421 -2.0626105538 -1.2407873049
C 0.0229796806 -2.7124557748 -0.1015651262
F 0.0216540112 -4.0412433942 -0.1816990307
C 0.0978385026 -2.1376777937 1.1595695415
C 0.0977191971 -0.7488920747 1.2169848218
O 0.1700668968 -0.1691116463 2.4379447705
H 0.9341753532 1.9167075089 0.4954906601
H -0.0408385537 1.9014165381 -0.9716786917
H -0.8342041750 1.9121072909 0.6012292894
H -0.1044526933 -0.1924837805 -2.1017140074
H 0.1537655028 -2.7377214900 2.0578618151
H 0.1616860890 0.7891088090 2.3409042671