12

O 0.0124308135 1.3808473983 0.0077794779
C -0.0178316825 0.0275496914 0.0012379266
C -1.1924477482 -0.6535775917 0.0043487402
N -1.1386602449 -2.0302869383 -0.0027534312
C 0.0204457320 -2.7898418140 -0.0129012216
O 0.0356412000 -4.0062954052 -0.0190402072
C 1.1989438641 -1.9014599611 -0.0150367242
F 2.3604004055 -2.5210850574 -0.0245760610
N 1.1840437497 -0.6196625495 -0.0086112516
H 0.9433315367 1.6349206601 0.0038364717
H -2.1639518043 -0.1825075666 0.0120397674
H -1.9958430716 -2.5660804561 -0.0006916871