12

F 0.2775687894 0.0923702638 0.1126776105
C 0.0007283680 1.4081842711 0.0636999719
F 1.1523451386 2.0492755067 -0.1979762132
F -0.8039658422 1.6080568652 -0.9937546129
C -0.6255316055 1.8955137521 1.3330676531
C -1.5599414977 0.9901198323 2.0921622861
C -0.1954747219 1.2978486315 2.6471951676
H -0.8502623761 2.9555191750 1.2978248760
H -2.4274749998 1.4462057660 2.5539095464
H -1.7264316420 -0.0027067810 1.6921380143
H 0.5475253805 0.5101362876 2.6171421786
H -0.1145072712 1.9678591298 3.4947622016