11

F -0.0325628455 0.0357919695 0.0048014142
C -0.0282803360 1.3616432360 0.0109855436
C -1.1960176968 2.0286049559 0.0293896450
O -1.2653925518 3.3815329303 0.0366424973
C -0.1075070812 4.0747560104 0.0247356799
C 1.1078158267 3.5012960456 0.0061468215
C 1.2742538808 2.0461636988 -0.0028186742
O 2.3425918583 1.4595056621 -0.0196088088
H -2.1688452387 1.5564144206 0.0398918184
H -0.2936854754 5.1411884414 0.0321587343
H 1.9969484494 4.1194857093 -0.0026051212