13

C -0.0287592311 1.4496085339 -0.0097189697
N -0.0014391135 -0.0081321977 0.0024451591
N -0.0367364884 -0.6260654346 -1.1949006522
C -0.0115450796 -1.9168841597 -1.1581745937
F -0.0453687467 -2.5381837275 -2.3194522229
N 0.0456974642 -2.7256959942 -0.0715192698
C 0.0791219218 -2.1180183323 1.0727796514
C 0.0584805637 -0.6608802949 1.2314470560
O 0.0885696546 -0.0555584815 2.2894923077
H 0.8678175843 1.8392247260 0.4790885798
H -0.0750197374 1.7700004269 -1.0483260837
H -0.8984193198 1.8067065145 0.5477364403
H 0.1255097179 -2.7082560490 1.9847982477