12

N 0.0183440176 1.3631548559 0.1525543235
C -0.0009124569 -0.0042431951 0.0569095360
C -1.2045763188 -0.7393519342 0.0307539600
N -1.2085851361 -2.0631019300 -0.0143963059
C -0.0308397654 -2.6923159486 -0.0317745663
C 1.1404710132 -1.9437993760 -0.0082373040
F 2.3116450544 -2.5693196768 -0.0329759669
N 1.1821613661 -0.6320590585 0.0310533513
H 0.8997551279 1.8008143467 -0.0661327963
H -0.8030231290 1.8687376142 -0.1354242554
H -2.1658840784 -0.2322793511 0.0485686568
H -0.0127976545 -3.7753136665 -0.0672897028