15

C 0.0017953905 1.5500335621 0.0275764832
C 0.0086106601 0.0476040625 0.0036176209
C 0.0700924833 -0.6996177569 -1.1911849846
N 0.1545649172 -0.0843025769 -2.4081346085
N 0.0874523900 -2.0438017184 -1.2015718651
C 0.0474606886 -2.6398193124 -0.0173724391
N -0.0153256542 -2.0566277827 1.1801068011
C -0.0327971876 -0.7375068942 1.1441479664
F -0.0946589151 -0.1306593780 2.3277298797
H 0.8794787051 1.9599197376 -0.4866431273
H -0.8884560819 1.9604934502 -0.4674714123
H 0.0068488491 1.9189028391 1.0535300388
H -0.1464714964 0.8707117771 -2.4990668068
H 0.0117879785 -0.6823726679 -3.2064373853
H 0.0638795829 -3.7269868511 -0.0227783011