14

N -0.0263816704 1.4126775622 0.1600412253
C 0.0292915175 0.0271431327 0.0571659392
C -1.1609911210 -0.7057489690 0.0374836760
F -2.3278439245 -0.0405606208 0.0491422021
C -1.1531667228 -2.0921162467 -0.0056838092
F -2.3234173732 -2.7328926363 -0.0261698172
C 0.0411165857 -2.7975976506 -0.0326956611
C 1.2331141383 -2.0767972023 -0.0187732067
C 1.2343188285 -0.6873472901 0.0255891094
H 0.7652458891 1.9008019903 -0.2310037486
H -0.9072180112 1.8148191823 -0.1250992064
H 0.0163819937 -3.8792989413 -0.0654548527
H 2.1774675424 -2.6090520773 -0.0421456967
H 2.1707464379 -0.1395697032 0.0418219967