14

C 0.0825309892 1.4756212079 0.0285742952
C 0.0024945973 -0.0191097201 -0.0165163241
N -0.1251543848 -0.6372500918 -1.1421878880
C -0.1968470190 -2.0201451054 -1.1560897138
C -0.1335087184 -2.7043996881 -0.0058210972
F -0.1904122251 -4.0102136009 0.1072872248
O -0.0018965203 -2.1270262532 1.1902071729
C 0.0765619541 -0.7301560640 1.2744807290
N 0.2013997366 -0.1542772408 2.3934309893
H 1.0186392819 1.7966515793 0.4971660856
H 0.0160683069 1.8738623737 -0.9842195688
H -0.7232261219 1.8854304080 0.6464242772
H -0.3036562206 -2.5233915585 -2.1063631736
H 0.2328679141 -0.8243456962 3.1620407217