13

N -0.0342319587 1.3817768702 0.1499912597
C -0.0324872515 0.0023375310 0.0397409037
N -1.1558290696 -0.6529872478 0.0251380939
N -1.0783560205 -2.0025065686 0.0072809951
C 0.0514179156 -2.8154236855 -0.0209658512
O -0.0383083351 -4.0311557195 -0.0408680832
C 1.2883899743 -2.0402909609 -0.0288645032
C 1.2269426439 -0.6970904303 0.0034621727
F 2.3234150854 0.0632475940 -0.0118133027
H 0.7550543965 1.8440148497 -0.2757506592
H -0.9237737214 1.8044682800 -0.0740052979
H -1.9711607558 -2.4751765254 0.0060033468
H 2.2292270268 -2.5732364068 -0.0613048845