13

O 0.0699413703 1.3518421929 -0.0307454313
C 0.0529333627 -0.0040072536 -0.0302025037
C -0.0205554811 -0.7197042532 -1.2270247189
N -0.0396800646 -2.0508726989 -1.2706398370
C 0.0128445856 -2.7431518507 -0.1338592794
C 0.0880888682 -2.1325551103 1.1197413252
O 0.1398100671 -2.8753339552 2.2529761353
C 0.1068227244 -0.7444508021 1.1430691696
F 0.1789445238 -0.1014797592 2.3310046644
H 0.1232922152 1.6604202441 0.8817984941
H -0.0643141061 -0.1762618820 -2.1660923211
H -0.0040169333 -3.8272327954 -0.1936624245
H 0.1880708678 -2.2799341765 3.0105860973