16

O 0.1187272652 1.3850115975 -0.2349459976
C 0.0588977229 -0.0057064552 0.0012570023
C -1.3769584375 -0.5727538601 0.0276919456
C -1.3892962203 -2.1094922932 -0.1218856144
O -2.6509589973 -2.6383367767 -0.4712261971
C -2.0913453409 -0.1556235454 1.3024998522
F -2.1437924680 1.1854834672 1.4447498486
F -3.3674823472 -0.5932014640 1.3411802894
F -1.4824937469 -0.6383016079 2.3984005113
H -0.3293797469 1.8325530828 0.4893177074
H 0.5933045478 -0.4728949296 -0.8310827692
H 0.5828306954 -0.2876880536 0.9269546559
H -1.9338689774 -0.1404631467 -0.8098477882
H -0.7165216420 -2.3763692791 -0.9421190309
H -0.9897763724 -2.5714307199 0.7934953604
H -3.2681056345 -2.4377139361 0.2390746345