17

C -0.0039914587 1.5148631744 -0.2707007360
C -0.0228535189 0.0232751196 0.1005165889
C -1.4166593185 -0.5565228356 0.0602586196
N -2.2690933133 -0.1212220160 1.0009565997
C -3.5137046229 -0.5980175637 0.9876445465
C -3.9912396422 -1.5211213205 0.0612199423
C -3.0935846709 -1.9561861157 -0.9001225194
F -3.4817187859 -2.8400407167 -1.8180534198
C -1.7915861031 -1.4812637538 -0.9169699505
H 1.0072336039 1.9234398364 -0.1848586933
H -0.3471396087 1.6700182511 -1.2988111429
H -0.6635544931 2.0765583930 0.3957272305
H 0.6325577283 -0.5417649198 -0.5704035627
H 0.3675676154 -0.0977160486 1.1170640456
H -4.1772219672 -0.2264876546 1.7651513939
H -5.0095236889 -1.8879057014 0.0832785928
H -1.0950697654 -1.8273793280 -1.6711205952