16

C -0.0705790199 1.5332403727 0.0453367497
C -0.0147153532 0.0295542830 -0.0139954720
C -0.0479529901 -0.6911306450 -1.2105257247
C 0.0047208549 -2.0796578195 -1.2445590593
C 0.0941115697 -2.7946839745 -0.0502965858
O 0.1435788675 -4.1543562554 -0.1246035450
C 0.1297438847 -2.1100521544 1.1654304594
C 0.0748033693 -0.7250227552 1.1526264318
F 0.1099610532 -0.0799930284 2.3287024724
H 0.8188307846 1.9510684542 0.5295443855
H -0.1393527212 1.9571142270 -0.9595461844
H -0.9350460351 1.8823043386 0.6205980306
H -0.1174791373 -0.1426820188 -2.1450757377
H -0.0221333779 -2.6229145071 -2.1814247160
H 0.2034740817 -4.5185134267 0.7643698741
H 0.1989389389 -2.6301718406 2.1153917312