12

F 0.0309058157 -0.0054461116 0.0028715397
C -0.0257532279 1.3255792491 0.0107653686
C -1.1936518977 2.0102413790 0.0294460120
N -1.1680634999 3.3650061449 0.0363968618
C 0.0209753220 4.1248123157 0.0252242934
N -0.0905185273 5.3943362177 0.0336609311
N 1.2070750034 3.3928015025 0.0060790811
C 1.1669883565 2.1149326331 -0.0002832174
F 2.3071626551 1.4461603583 -0.0185514186
H -2.1582673170 1.5194082349 0.0391910473
H -2.0228399649 3.9009736426 0.0502876802
H 0.8369455121 5.8127194637 0.0240958309