14

O -0.1076378694 1.3565729588 0.1245476157
N 0.0556353156 -0.0511720855 0.0897044962
C -1.0902163309 -0.6391966441 -0.0466681095
C -2.3913069614 0.0166651561 -0.1533558927
C -3.5187196479 -0.7060913351 -0.2927889238
N -3.4902096048 -2.0860297203 -0.3401520721
C -2.2840532753 -2.7322476910 -0.2426194624
F -2.4021112701 -4.0540608608 -0.3025559919
C -1.1137946938 -2.0934563444 -0.1019443809
H 0.8012603524 1.6538038334 0.2265635355
H -2.4380626537 1.0942852725 -0.1188319430
H -4.5028280736 -0.2627644666 -0.3754092142
H -4.3271547798 -2.6335224114 -0.4440146836
H -0.1926379171 -2.6544987114 -0.0299242033