14

C -0.0106017891 1.4117007513 0.0084390575
O -0.0278318338 -0.0212037064 0.0050000034
C -1.2170504627 -0.6230858870 0.0122572655
C -1.2487662726 -2.0269466398 0.0087975466
C -2.5035269801 -2.5977796452 0.0165998504
N -3.6424166142 -1.8808521902 0.0269298435
C -3.4579419451 -0.5800206330 0.0290046231
F -4.5526748777 0.1579231856 0.0389404101
N -2.3265324070 0.1089523134 0.0224083304
H 1.0444851297 1.6853690826 0.0007806372
H -0.5162912960 1.8090491010 -0.8749740748
H -0.5021971882 1.8045919253 0.9017569236
H -0.3367412265 -2.6072301441 0.0004934848
H -2.6220815067 -3.6778844033 0.0146317788