13

C 0.0591951113 1.5027522882 0.0488984240
C -0.0028725508 -0.0348620118 0.0024112276
C 0.7486350702 -0.6160526226 1.1962366057
O 1.8684261581 -1.0452417044 1.1291994900
C -1.4422000375 -0.5273287961 0.0002601836
F -2.1132483037 -0.0933490851 -1.0748020410
F -1.4908936388 -1.8681985116 -0.0024454497
F -2.1084645960 -0.1055889383 1.0898742461
H 1.0972689950 1.8343604045 -0.0212417843
H -0.5023806384 1.9273774562 -0.7864303735
H -0.3684555450 1.8857487538 0.9795501040
H 0.4749078594 -0.4097626069 -0.9066309519
H 0.1951733162 -0.5730991459 2.1592641695