15

F 0.4839344678 0.1140740462 0.1173842410
C -0.1540637682 1.2954261900 0.0997062923
F 0.7292362083 2.2144970668 -0.3367489144
F -1.1300990835 1.2147472272 -0.8150943921
C -0.7014281806 1.6584151768 1.4625900711
C 0.4067649521 1.7413419914 2.5241319769
N -0.0960690297 2.1592404025 3.8224231142
C -0.7866544917 1.3121282293 4.6302728694
O -1.0518526676 0.1621622103 4.3490121224
H -1.2205602745 2.6164270638 1.3667196213
H -1.4295158131 0.8982012921 1.7537545963
H 0.8710262079 0.7577238910 2.6323278144
H 1.1773412025 2.4489987440 2.2100349979
H 0.0509735088 3.1073928742 4.1272454028
H -1.0807027585 1.7902609244 5.5853514465