19

C -0.0832399185 1.5772007342 0.1021715762
C 0.0374085758 0.0545150483 0.0003639820
C 0.7347704814 -0.4482885484 -1.2850869340
C 0.0102929613 0.0076299064 -2.5591596878
N 2.1102867209 0.0537931507 -1.3158450994
C 0.7360879017 -1.9912887184 -1.2557944775
F -0.5022283817 -2.5108960645 -1.2335837967
F 1.3607689677 -2.5011651401 -2.3338583067
F 1.3848121958 -2.4608300005 -0.1734787325
H 0.8895321831 2.0539431783 -0.0400532217
H -0.7725087822 1.9832061324 -0.6440783675
H -0.4662842155 1.8591138067 1.0874015288
H 0.6036987019 -0.3238291307 0.8593796327
H -0.9530532087 -0.4082865475 0.0608682065
H 0.0664716736 1.0935633353 -2.6445255070
H 0.4778848596 -0.4294832117 -3.4459419516
H -1.0388875585 -0.2970125379 -2.5447968246
H 2.6311399654 -0.3165769786 -0.5255689062
H 2.5811428672 -0.2746259142 -2.1539872829