12

N 0.0162705093 1.4262634672 0.1619644011
C -0.0354102732 0.0502526373 0.0587558630
C -1.1533865884 -0.6970512413 0.0288616422
F -2.3807330234 -0.2162448489 0.0282592207
O -1.1572466552 -2.0449013927 -0.0096515027
C 0.0558831432 -2.6491632469 -0.0169395132
N 1.1905145425 -2.0766072770 -0.0093144275
C 1.2517422717 -0.6694543727 0.0085975904
O 2.3034124020 -0.0625711305 -0.0244971067
H 0.9329688381 1.7721539821 -0.0940728119
H -0.7509164327 1.9390395672 -0.2454101074
H -0.0619070439 -3.7271852339 -0.0336472580