15

C -0.0242897593 1.5309203782 0.0539957464
C -0.0080620830 0.0339614232 -0.0164334364
C -0.1110238074 -0.6780659758 -1.1679383513
F -0.2357468088 -0.0217918789 -2.3237593394
C -0.0952383478 -2.1443897718 -1.2399689899
O -0.1901454640 -2.7589023165 -2.2955119117
C 0.0447201170 -2.7616019002 0.0763693488
C 0.1451777586 -2.0236387573 1.2072131702
N 0.1200926232 -0.6588616813 1.1686636877
H 0.9030863190 1.9164191518 0.4936763587
H -0.1293083683 1.9482823623 -0.9465348011
H -0.8594608504 1.8892185604 0.6672462341
H 0.0662754153 -3.8429991318 0.1236335361
H 0.2496542509 -2.4593692218 2.1936517959
H 0.1965975251 -0.1348892506 2.0244789617