11

F 0.0017207046 0.0262541875 0.0037104396
C -0.0162625377 1.3507895815 0.0105934418
C -1.2195986797 2.0450151659 0.0300312053
N -1.2404802909 3.3750366294 0.0369795643
C -0.0520464161 3.9860280779 0.0242287580
N 1.1525389120 3.4076942182 0.0054407019
C 1.1677784403 2.0775952371 -0.0014332705
C -0.0716567501 5.4306216336 0.0319617507
N -0.0873455013 6.5860224133 0.0381264030
H -2.1688328760 1.5161952814 0.0399702826
H 2.1310209949 1.5748773442 -0.0166997267