16

N -0.0540168153 -1.1457940229 -0.0657432750
C -0.0461675706 0.0068525047 -0.0000057871
C -0.0025779938 1.4765658312 0.0317396544
O -0.7195089225 1.9093841798 1.1812765313
C -0.5789036960 3.3019511207 1.3533810218
O 0.7076614285 3.6535190645 1.7783145100
C 1.7189741112 3.1843656341 0.9262858836
C 2.3153292832 1.8381291289 1.2332281964
C 1.4259659012 2.0054737816 0.0244224407
H -0.5159266202 1.8427446253 -0.8732152733
H -0.8346935020 3.8160903418 0.4098275641
H -1.2662940459 3.5935962286 2.1480381853
H 2.3583815078 3.9817568276 0.5585862959
H 3.3741351474 1.6783218800 1.0665969314
H 1.8959022481 1.3260725307 2.0919863587
H 1.8942353189 1.9937822634 -0.9538741581