16

C 0.0112656741 1.5087100474 -0.0011588674
C 0.0001799052 0.0074075553 -0.0091514586
N -0.0548899327 -0.6410808495 -1.1799811937
C -0.0623604879 -1.9722982513 -1.1298344888
N -0.0210504782 -2.7426885771 -0.0437853092
C 0.0344001451 -2.1168134526 1.1392689862
C 0.0828794470 -2.9315722379 2.3993933672
C 0.0456739572 -0.7272423967 1.1699128269
F 0.1009312339 -0.0897430509 2.3474423540
H 0.9143995173 1.8912877589 0.4858417020
H -0.0296315743 1.8764244902 -1.0266811206
H -0.8418592728 1.9038489083 0.5603104633
H -0.1070221746 -2.4894802034 -2.0851284363
H 0.9897949427 -2.7126955618 2.9728155663
H -0.7663260489 -2.6978085365 3.0500695765
H 0.0628454066 -3.9917302680 2.1459256600