14

O -0.0051747442 1.4263959052 0.0084267377
C -0.0043968142 0.0124779322 0.0032563677
C -1.4280526619 -0.4844941391 0.0142903406
N -1.5906107063 -1.8146204351 0.0122428952
C -2.8334213422 -2.2776807454 0.0216489806
C -3.9135298043 -1.3930822193 0.0331417279
F -5.1481023815 -1.8825558261 0.0424906815
N -3.7828586686 -0.0902394027 0.0354337481
C -2.5258291196 0.3732840822 0.0259069775
H 0.9061975372 1.7304074830 0.0012636719
H 0.4999024681 -0.3959981196 -0.8865795490
H 0.5158635346 -0.4025491482 0.8807629683
H -2.9901092124 -3.3521134858 0.0202425601
H -2.3901004947 1.4477212786 0.0275517621