12

O 0.0139682852 1.3363059706 0.0077393470
C -0.0159907612 -0.0032266214 0.0008832013
C -1.1835199416 -0.6915514833 0.0033878235
F -2.3576061456 -0.0744903004 0.0127731943
C -1.1934391616 -2.1345099330 -0.0041358248
N -2.2226328437 -2.8650612171 -0.0025595153
O 0.1063968507 -2.6997770344 -0.0139051716
C 1.1914560676 -1.9192112097 -0.0154966934
N 1.2099078288 -0.6427501751 -0.0089006502
H 0.9458766185 1.5929073393 0.0041972318
H -1.9786341640 -3.8540430377 -0.0090193252
H 2.1074091572 -2.5008031977 -0.0233429774