13

N 0.0653471836 1.3483082538 0.1368280999
C -0.0628081370 -0.0033984954 0.0491483778
C -1.2498805407 -0.6893293187 0.0267855131
C -1.1537296459 -2.0934415303 -0.0090079902
F -2.2964126136 -2.7714311492 -0.0291447727
C 0.0264672803 -2.7760826458 -0.0252586998
C 1.2634232337 -2.0645481984 -0.0090386211
O 2.3924985840 -2.4632956404 -0.0236832787
O 1.1154283278 -0.6206644621 0.0264711864
H 0.9706466915 1.7289268105 -0.0883006105
H -0.7322821675 1.9177440742 -0.0902897262
H -2.2062879696 -0.1890620854 0.0467038305
H 0.0608992335 -3.8550880628 -0.0546046484