11

F -0.0008842709 0.0307558860 0.0031999209
C -0.0189315047 1.3532512702 0.0105901919
C -1.2193887241 2.0524345899 0.0301696884
N -1.2422222209 3.3823375215 0.0376681498
C -0.0558840766 3.9999939564 0.0254107142
N 1.1428025666 3.4266413621 0.0065219606
C 1.1656106566 2.0869674911 -0.0010316395
C 2.4384749246 1.4199657765 -0.0213881165
N 3.4520122386 0.8647729657 -0.0377294140
H -2.1640985128 1.5151263201 0.0396939242
H -0.0724993565 5.0857007105 0.0314780399