13

N -0.0406373156 1.4317311478 -0.1443677519
C 0.0179711570 0.0614637278 -0.0663749009
C -1.1258490376 -0.7471362874 0.0086296585
F -2.2991754580 -0.1085788450 0.0658028010
N -1.1648239220 -2.0533725586 0.0359387585
N -0.0177642006 -2.7358708334 -0.0089824687
C 1.1225095803 -2.0555476858 -0.0739985361
C 1.2065946075 -0.6624870247 -0.1026547992
O 2.3675895661 0.0434855764 -0.1578693850
H 0.8007063583 1.9239266617 0.1126904647
H -0.8975654939 1.8523142277 0.1783352771
H 2.0282776394 -2.6585806512 -0.1028922033
H 3.1161747091 -0.5629473853 -0.1606800946