16

C -0.0676035940 1.3735033896 0.1048460454
O 0.0017515025 -0.0358405927 0.0021054540
C 0.6217038049 -0.5606299060 -1.0841966466
C 1.2043794011 0.1655799916 -2.1224054159
C 1.8150845848 -0.4967291657 -3.1904463752
C 1.8518403277 -1.8833138780 -3.2357064515
C 1.2715543409 -2.6212270381 -2.2015690798
C 0.6692637930 -1.9628810158 -1.1483238915
F 0.1117479099 -2.6609869534 -0.1549193723
H 0.9315792814 1.8259213051 0.1476162175
H -0.6230416849 1.8136423536 -0.7333963259
H -0.5967806380 1.5824473840 1.0357252545
H 1.1855586656 1.2476472104 -2.1045282130
H 2.2619943367 0.0878389722 -3.9871364266
H 2.3254756474 -2.3973252463 -4.0640165374
H 1.2778036110 -3.7052118805 -2.1972906557