10

F 0.0017085156 0.0278209600 0.0038366219
C -0.0163534109 1.3579122502 0.0107746534
C -1.2157620634 2.0551573809 0.0299727549
N -1.2361976759 3.3882481414 0.0369707824
C -0.0519079757 3.9755614430 0.0244184772
F -0.0698028719 5.2930608431 0.0314640121
N 1.1478912675 3.4207923944 0.0059710942
C 1.1636719569 2.0876349684 -0.0009660410
H -2.1669301512 1.5298526030 0.0397654207
H 2.1287572390 1.5884931557 -0.0160894459