13

F -0.0139092342 0.0127371642 -0.3375155199
C -0.0320469244 1.3161739785 -0.0741513359
C -1.1855005949 1.9926437052 0.0644246287
N -1.1942896444 3.3362708365 0.3357656344
C -0.0489710719 4.1053133532 0.4889572707
N -0.1651293392 5.3499833481 0.7402517676
N 1.1180180128 3.3606861196 0.3367143832
C 1.2568399446 1.9905064369 0.0600063247
O 2.3478918939 1.4756465623 -0.0462858434
H -2.1486933935 1.5081971342 -0.0317914351
H -2.0598631454 3.8402275835 0.4388606717
H 0.7369722181 5.8092167050 0.8313258450
H 1.9967641285 3.8497044729 0.4337796182