13

N 0.0493468107 1.3586626041 0.1243560662
C -0.0389669023 0.0022443376 0.0467544926
C -1.2085450433 -0.7005728566 0.0273859019
C -1.2010237150 -2.1285988291 -0.0036247404
N -2.1903983829 -2.9137181286 -0.0201137195
O 0.1296754541 -2.6976938224 -0.0195426870
C 1.1678548321 -1.8892061147 -0.0081551983
F 2.2799419448 -2.5784240166 -0.0371316324
N 1.2080735462 -0.6210576814 0.0234081516
H 0.9452557194 1.7627737589 -0.0930668905
H -0.7652785004 1.9149604489 -0.0711047623
H -2.1749717098 -0.2168053563 0.0417041816
H -1.8998651635 -3.8889836237 -0.0436433035