15

N 0.0429552698 -1.1241917665 -0.0417144950
C 0.0290680282 0.0308642720 -0.0000078257
C 0.0270271715 1.4764527539 0.0760892417
C -0.8990895457 2.1689806905 1.0622117053
C -0.7048149358 3.4587849601 0.7910903510
C 0.3147637987 3.4274489680 -0.3243965184
C 1.3578171361 2.3068485802 -0.0322953563
C 1.3457400922 2.0099400593 -1.5345361707
N -0.1443228478 2.2697620448 -1.2740097045
H -1.5556590070 1.6759529879 1.7627476833
H -1.1676850130 4.3344021755 1.2213050483
H 0.6148234866 4.3419514287 -0.8337634217
H 2.1838678854 2.3115261526 0.6878315083
H 1.7965792493 2.7480116112 -2.2014933869
H 1.5623883413 0.9925673519 -1.8662273288