13

N -0.0355120283 1.3607648404 -0.1421227675
C -0.0089127676 -0.0103119676 -0.0578774743
C -1.1888274002 -0.7602073313 -0.0837024441
F -2.3924295323 -0.1526939233 -0.1263926380
C -1.1156056487 -2.1328783386 -0.0567131258
O -2.2001298105 -2.9336549864 -0.0763077410
C 0.1784576249 -2.6791134045 -0.0055042190
N 1.2707778818 -1.9323355259 0.0260326247
N 1.1895078418 -0.6058493681 0.0063780015
H 0.8339147509 1.8002932900 0.1224643332
H -0.8697836239 1.8230680021 0.1821911473
H -2.9918942319 -2.3823866846 -0.1168009514
H 0.3116828340 -3.7553545122 0.0156714344