16

C 0.0444865443 -1.1339054371 0.2099149715
C 0.0000026469 0.0512835002 0.0099704896
C -0.1348151172 1.4602378798 -0.1967404966
C -1.3845145714 2.1912647064 0.3611056052
C -1.0679721670 3.6070789156 -0.0772500108
C -0.0765968950 3.5804436483 -0.9957196549
C 1.3346175281 3.6672528743 -0.4084795339
N 1.2945597633 2.1306792861 -0.4061735969
C 0.2411982739 2.1527946941 -1.4450511921
H 0.1017139188 -2.1805157073 0.3794721358
H -2.2774133809 1.6942314664 -0.0421951548
H -1.4686267171 2.1611316864 1.4526898820
H -1.1361147122 4.4143080257 0.6470584643
H 2.1564815754 3.9313449066 -1.0814431337
H 1.4513519219 4.1589743463 0.5604243661
H 0.3707364582 1.7406589581 -2.4395132509