19

C -0.5239780655 1.3260450009 -0.0418502741
O -0.0447241236 0.0000044140 -0.0935722067
C 0.6167013567 -0.4424699044 1.0803688033
C -0.3313609056 -0.7055707178 2.2506712045
C 1.3448244121 -1.7082152337 0.6507217042
C 2.5618437194 -1.5497691326 -0.2726491816
C 3.3387384385 -2.0859435518 0.9296912441
O 4.4592541824 -2.3507427987 1.2192226647
O 2.2173037081 -2.2138571576 1.7195559919
H 0.2777140392 2.0360549888 0.2137926406
H -0.9036994561 1.5664682789 -1.0376462783
H -1.3406616808 1.4505399715 0.6824648810
H 1.3743534922 0.3010729199 1.3843240082
H -0.7980919022 0.2173587128 2.6044898854
H -1.1219418549 -1.4000424329 1.9487059556
H 0.2230408753 -1.1447493016 3.0843705668
H 0.6323426475 -2.4818871258 0.3526818679
H 2.5965169762 -2.1939908984 -1.1520873018
H 2.8106840511 -0.5267224816 -0.5588691154