17

F 0.1335998554 0.0679004976 -0.1238075688
C 0.0442733507 1.4046569813 -0.0001180682
F 1.2886052261 1.8890906863 0.0252571257
F -0.5540614480 1.8711643938 -1.1089170208
C -0.7542104259 1.7945706802 1.2338607516
N -0.1605364182 1.2709247304 2.4344311755
C -0.3582657889 -0.1507440629 2.7971966529
C -0.4480375132 0.2795082395 4.2804538269
C -0.7040317280 1.7062209608 3.7370373894
H -0.7600649426 2.8884153632 1.2785900943
H -1.7948981725 1.4577995836 1.0652672150
H -1.3105796136 -0.5588620504 2.4209645013
H 0.4522464163 -0.8189656147 2.4957023558
H -1.2358480597 -0.1709467110 4.8838843746
H 0.5063754286 0.1938774898 4.8022540534
H -0.1725452692 2.5452233426 4.1979479676
H -1.7797740973 1.9449462998 3.6992702739