10

F -0.0148177098 0.0991651859 -0.2762638465
C -0.0332555359 1.3848342291 -0.0300278736
N -1.1615805480 1.9523016436 0.0947636637
O -1.1393829478 3.3164096618 0.3549394306
C 0.0294193507 4.0411638456 0.4763465330
N 0.0426350797 5.2669059047 0.7110651903
O 1.2127268132 3.3754397400 0.3319724806
C 1.2946848025 2.0373397000 0.0751691826
O 2.3434514057 1.4898894550 -0.0448077063
H -0.9003089504 5.6395798244 0.7963281556