15

N 0.0088234427 1.4011536872 0.1503758793
C -0.0093617723 0.0131126367 0.0633977985
C -1.1942304194 -0.7375367564 0.0176952794
N -1.2190481775 -2.0670147423 -0.0154882425
C -0.0675934277 -2.7326773249 0.0010618830
C 1.1874441353 -2.1062889217 0.0457306286
N 2.3860033868 -2.8085493315 0.1152854002
C 1.1744422065 -0.7161417149 0.0694499095
F 2.3513805906 -0.0516343894 0.0812907189
H 0.8726710688 1.8262330741 -0.1533202785
H -0.7999824526 1.8570460855 -0.2457344841
H -2.1523573727 -0.2220675944 0.0085930537
H -0.1211175256 -3.8191531227 -0.0213960781
H 2.3558183885 -3.7315190021 -0.2922973409
H 3.1939705286 -2.2845206330 -0.1875994470