17

C -0.2552905726 1.6070984629 0.2761200980
C 0.1770905522 0.1948446861 -0.1333734372
C 0.9262438527 -0.5006016499 0.9820010150
N 0.1389289076 -1.1321680241 2.0533262300
C 0.9913048980 -1.9696938450 1.2108202168
C 0.3087407343 -3.0088277073 0.3564715573
F -0.9229858793 -2.6641074114 -0.0264574021
F 1.0311000677 -3.2497666503 -0.7524487736
F 0.2121205197 -4.1714339780 1.0240543243
H 0.6073967730 2.2307751044 0.5369424985
H -0.7911773905 2.1046665228 -0.5372878629
H -0.9186208550 1.5692046490 1.1457622499
H -0.6962172591 -0.3971565488 -0.4112348022
H 0.8289784530 0.2412032283 -1.0148673565
H 1.8300958073 0.0250914681 1.2940634870
H 0.5621240337 -0.9982938672 2.9667712699
H 1.9164765572 -2.3681807497 1.6218123578