15

C -0.1477723057 1.4009423040 0.0304215077
N -0.0903665267 -0.0491231317 -0.0183598682
C 0.5907681686 -0.5993361732 -0.9550571343
C 1.3549723363 0.0346762817 -2.0323813082
C 2.0219747009 -0.6886213256 -2.9454024195
O 2.0578715720 -2.0389508882 -2.9663485525
C 1.3670841691 -2.6947847020 -1.9907051442
C 0.6719910692 -2.0564377793 -1.0368226679
F 0.0273279040 -2.7715066600 -0.1241271933
H 0.8451849342 1.8586367273 0.1579486500
H -0.5952339082 1.8364588265 -0.8761191277
H -0.7629643818 1.7054425536 0.8807987342
H 1.3919919650 1.1131202914 -2.1069134661
H 2.6007955503 -0.2719422787 -3.7600007625
H 1.4411331329 -3.7696686355 -2.0707219276