12

C -0.0224548976 1.4919535288 0.0298135601
C 0.0004527784 -0.0088745169 -0.0120367371
C 0.0710961586 -0.7352996013 -1.2113628286
N 0.0896652690 -2.0583459936 -1.2199776697
C 0.0358921371 -2.5995847966 -0.0106966181
F 0.0519242296 -3.9136899193 0.0344613884
N -0.0314521803 -1.9911543955 1.1596365834
N -0.0493148416 -0.6603427331 1.1513602480
H 0.8775189575 1.9143648950 -0.4295217421
H -0.8849250528 1.8898049337 -0.5154054408
H -0.0777272639 1.8250111792 1.0670657697
H 0.1129160560 -0.2322079204 -2.1752264433