13

N -0.0254640111 1.3816046691 0.1569661855
C 0.0230941092 -0.0000591427 0.0544972341
N -1.1534421642 -0.6351242736 0.0393013816
C -1.1551996069 -1.9695675321 0.0034038274
C 0.0090197250 -2.7173919240 -0.0295553203
F -0.0516980617 -4.0548323707 -0.0721635009
C 1.2387981959 -2.0708765904 -0.0227769562
C 1.2502271901 -0.6875824192 0.0230328452
H 0.7481502884 1.8886844643 -0.2440525381
H -0.9287314480 1.7651965750 -0.0801865410
H -2.1205059928 -2.4689721859 -0.0055459560
H 2.1561687249 -2.6478978685 -0.0506041240
H 2.1869949211 -0.1412261514 0.0405906226