14

N 0.0465044315 1.4830171989 0.1504994022
C 0.0278152625 0.0729503372 0.0425040772
C -1.1188816910 -0.6566658285 0.0059719013
F -2.3250372076 -0.0901638812 0.0031029137
N -1.1282777988 -2.0142387652 -0.0104435118
C 0.0237681213 -2.8356981196 -0.0339598825
O -0.0906990527 -4.0490721373 -0.0657390716
C 1.2447177630 -2.0549469347 -0.0082922896
C 1.2316874002 -0.6936797433 0.0406579360
H 0.6343773421 1.9112285859 -0.5559771466
H -0.8841181070 1.8749600572 0.0752861201
H -2.0171091357 -2.4961383047 -0.0192743629
H 2.1709320313 -2.6146439568 -0.0156721327
H 2.1692648109 -0.1462975579 0.0828332472