17

C 0.0747126369 1.5126462463 0.0338905147
C 0.0185280081 0.0079755427 0.0059159486
C -0.0207288548 -0.6843810157 -1.2126639825
C -0.0095594492 0.0144103302 -2.5465825069
C -0.0714417607 -2.0786143746 -1.1212280998
F -0.1100764619 -2.7794379001 -2.2598161204
N -0.0858257147 -2.7949171299 -0.0219704592
C -0.0478572688 -2.1168166495 1.1302053884
C 0.0042061399 -0.7328734488 1.1915562663
H 0.9621856686 1.8880628773 -0.4883778291
H -0.7943480853 1.9532653977 -0.4680158196
H 0.1005170362 1.8883101081 1.0590441715
H 0.8929154883 0.6242485564 -2.6700425810
H -0.0460620073 -0.7065155754 -3.3627708560
H -0.8660479018 0.6906667907 -2.6499518273
H -0.0599644249 -2.7144967390 2.0376207536
H 0.0335395415 -0.2305743764 2.1523304288