11

O -0.0500343802 1.2552784760 0.1507451318
C 0.0011289949 -0.0591084045 0.0643468006
N 1.1294645444 -0.6791234049 0.0173808196
C 1.0395887916 -2.0389911208 -0.0711466382
F 2.2042924655 -2.6475802995 -0.1178396529
N 0.0117680139 -2.8030322754 -0.1154654422
O -1.2178868910 -2.1166724018 -0.0635725405
C -1.3025119413 -0.7528664457 0.0262430389
N -2.4021575658 -0.1311377632 0.0731606434
H 0.8645456623 1.5800958401 0.1668723060
H -3.1904120143 -0.7805014203 0.0350560236