12

F 0.3827843256 0.2197869069 -0.0509141419
C -0.0576955059 1.4731362778 -0.0575807585
F 0.9506973260 2.2808745918 -0.4186888975
F -1.0110227882 1.5741336341 -0.9959742891
C -0.6093259697 1.9122912540 1.2833659897
O -1.3068024387 0.9419823244 2.0342569529
C -0.0667086420 1.4433983872 2.5745803060
C 1.0396593292 0.5387613230 2.7150222731
C 1.9788387137 -0.1839351556 2.9093285701
H -1.0629305425 2.9023622162 1.2340817942
H -0.2080920826 2.1192040818 3.4178163105
H 2.8074545649 -0.8324316717 3.0566555105