18

C 1.0169630506 -0.0706462834 1.2617463937
C 0.1115358495 0.0753398833 0.0351320760
C 0.7263588603 -0.5065911095 -1.2544372917
C 0.6711999096 -2.0477956584 -1.2935350154
O 1.5564345144 -2.6299896910 -2.2271525879
C 0.0294703077 0.0819881531 -2.4717628942
F 0.1893609727 1.4104211140 -2.5537344616
F 0.5074901213 -0.4367819862 -3.6300185931
F -1.2912347297 -0.1625330471 -2.4599504787
H 1.2371771597 -1.1170922695 1.4939613936
H 1.9717897918 0.4436221346 1.1093433125
H 0.5401162508 0.3665004862 2.1438172308
H -0.8558551864 -0.4065873696 0.2197319737
H -0.1012703003 1.1367605882 -0.1263931327
H 1.7777340173 -0.2056507138 -1.3316204533
H 0.9721792166 -2.4342504692 -0.3166122229
H -0.3707891120 -2.3629705016 -1.4607738485
H 1.3129065161 -2.3076961002 -3.1004780102