16

C -0.0304450590 1.4968736057 -0.0209821549
C 0.0088433475 -0.0066447495 -0.0068022725
N 0.0200820027 -0.6534529144 -1.1779262825
C 0.0613121006 -1.9905102459 -1.1923683026
N 0.1373537905 -2.5852425396 -2.4439161311
C 0.0816400701 -2.7579533091 -0.0167599175
C 0.0609931936 -2.0945490722 1.1995485184
C 0.0276412434 -0.7096515941 1.1936340523
F 0.0081918961 -0.0306436947 2.3534555283
H 0.8603837231 1.9192362004 0.4568366998
H -0.0812305114 1.8483463185 -1.0519975481
H -0.8954385320 1.8761855138 0.5333276475
H -0.1425850453 -1.9673168154 -3.1917503234
H -0.2514361542 -3.5124557505 -2.5206505515
H 0.1189807435 -3.8407114739 -0.0609563339
H 0.0726350607 -2.6294535292 2.1425363716