19

O 0.0360936169 1.4544650918 -0.2123122171
C 0.0605033675 0.0493038288 -0.0089888733
C 0.7001430155 -0.7130053791 -1.1929553195
C -0.2691224492 -1.8752025372 -1.4436700276
O -1.5493194080 -1.3651438120 -1.0838497001
C -1.4110369767 -0.4764830062 0.0000040881
O -1.6336769851 -1.0874847344 1.2512318227
C -0.3863609445 -1.4387769922 1.8430747420
C 0.5846217806 -0.3423444610 1.3904941482
H 0.9456838119 1.7699194933 -0.2199733635
H 0.7058794496 -0.0417614878 -2.0561310315
H 1.7237101590 -1.0442391755 -0.9985081089
H -0.3140818158 -2.1854839416 -2.4909529900
H -0.0123612207 -2.7588570123 -0.8408634161
H -2.1612130967 0.3064361113 -0.1221135883
H -0.5271695351 -1.4741454482 2.9267036093
H -0.0591451676 -2.4360834499 1.5132212961
H 1.6288401848 -0.6662830375 1.3930248480
H 0.4859901036 0.5321937197 2.0396643313