18

C 0.0183530502 1.4924085342 0.0632470105
C -0.0025721516 0.0000033597 -0.0156283923
C 0.0141553129 -0.7719063890 -1.1037128098
C 0.0423171992 -2.2215271658 -0.7316476606
C 1.2498884027 -2.6318490375 0.0621301072
N 0.0226131755 -2.2768865038 0.7676912675
C -0.0381609141 -0.8731916243 1.2259726454
C -0.7214875531 -3.1736363174 -1.4890204146
C -1.3436171160 -3.9537045428 -2.1598400431
H 0.9189060348 1.8514639106 0.5773694848
H -0.0084849337 1.9488982786 -0.9294167070
H -0.8383504175 1.8686196308 0.6367382034
H 0.0129475929 -0.4375147724 -2.1333158955
H 1.5143171337 -3.6836144091 0.1281988675
H 2.0861479286 -1.9349850277 0.0662709453
H 0.7935759109 -0.6657926985 1.9124069665
H -0.9645928402 -0.7200795997 1.7964757438
H -1.9015238953 -4.6477291658 -2.7381209290