14

C -0.0303469863 1.4434801030 -0.0077885418
N -0.0067151556 -0.0167506935 0.0002103414
N -0.0433685449 -0.6177023969 -1.1875207662
C -0.0236520200 -1.9209967284 -1.2223283145
C 0.0355291860 -2.6952821404 -0.0315786750
F 0.0519499657 -4.0175422336 -0.1598271639
C 0.0733624539 -2.0999401229 1.1824173836
C 0.0530968495 -0.6544441996 1.2640887544
O 0.0829166121 0.0172938158 2.2810008409
H 0.8679974931 1.8327362592 0.4773346523
H -0.0795670341 1.7630424429 -1.0466568003
H -0.8961960867 1.8042156314 0.5525108847
H -0.0541408297 -2.3923355952 -2.1968855520
H 0.1187127772 -2.6620585819 2.1055062463