14

C 0.0098997347 1.4044839215 -0.2459209872
N 0.0274844489 -0.0425060613 -0.1699758694
C -1.0685362574 -0.6302258006 0.1408484215
N -2.2962819240 -0.0400665377 0.4195609990
N -3.4357190081 -0.7072722670 0.7459636515
C -3.3156705349 -1.9835095280 0.7865529471
F -4.3911402401 -2.6781112786 1.0982516015
N -2.2006150102 -2.7449995116 0.5458626104
C -1.1353751098 -2.0853668107 0.2387519968
H 1.0030668378 1.7680988079 -0.5177577834
H -0.6988996185 1.7791412081 -1.0045094647
H -0.2633880922 1.8747069089 0.7145138350
H -2.4070865271 0.9599337465 0.3919783445
H -0.2137567890 -2.6253606576 0.0348427373