16

F 0.3723559100 0.1697970152 -0.2304507218
C 0.0127952199 1.4504588502 -0.0491589204
F 1.1349610667 2.1864471448 -0.1535415103
F -0.7769559710 1.7818654108 -1.0875682454
C -0.6911826212 1.7699040395 1.2534670871
C -1.8622041773 0.9189545051 1.8332963788
C -0.8198116828 -0.1260670712 2.3390268280
C -0.1979017226 1.2715166787 2.6462662776
C -1.6084272053 1.6820407229 3.1693420099
H -0.8958646538 2.8443725623 1.2065373569
H -2.8223566621 0.7270622962 1.3544901663
H -1.1255228046 -0.7034034719 3.2152494410
H -0.3273271050 -0.7544220641 1.6033189657
H 0.7659097818 1.4871946414 3.1072659837
H -1.8421886174 2.7498644924 3.1848094313
H -1.9461397553 1.1798946078 4.0784697816