15

O -0.8615620299 1.1131588219 0.2775747113
C 0.2567674521 0.7280450200 0.0686738887
C 1.4683932258 1.6478379917 0.0209917094
C 1.3392905149 2.8852117717 0.9080464579
C 2.6722886284 3.5653027241 1.1928410582
O 2.7593568106 4.6802954732 1.6198157062
O 3.7988009988 2.8185969558 1.0282319864
C 3.7626342528 1.6113235045 0.2623180965
O 2.5929801290 0.8808206864 0.4247512594
H 0.5021521110 -0.3391720110 -0.1195822027
H 1.5950212213 1.9494389985 -1.0364110162
H 0.6567851684 3.6227215610 0.4840754805
H 0.9247097305 2.5940599083 1.8797661589
H 3.9124834796 1.8791862091 -0.7959142973
H 4.5911127566 0.9998395349 0.6217170527