16

O 0.3363695545 1.1781035841 -0.4664335924
C 0.0228831375 -0.0038470515 0.2464314993
C -1.4039232924 -0.4858573644 0.0287025609
C -1.7899618450 -1.0183441595 -1.3275963432
C -1.6773238980 -1.9597284364 -0.1597543033
C -2.4324441265 0.3020666829 0.7894735523
F -2.3589304711 1.6232792587 0.4904693891
F -3.6878792054 -0.0882966788 0.5286155488
F -2.2510328564 0.2070383804 2.1173350591
H -0.2807738051 1.8609843840 -0.1842737433
H 0.7121378320 -0.7689954628 -0.1226145417
H 0.2066943401 0.1117744654 1.3251446694
H -2.7815359694 -0.7949976684 -1.7020160755
H -1.0103531307 -1.0196172681 -2.0804753246
H -0.8259879056 -2.6288773051 -0.1057712289
H -2.5937392385 -2.3605251305 0.2568138239