15

C -0.0188498859 1.5214071245 0.0309301840
C 0.0007044739 0.0162456727 0.0004871265
C -0.0216333308 -0.6715173275 -1.1805859846
C -0.0030895595 -2.1161300737 -1.2489498121
O -0.0200074940 -2.8218495777 -2.2403340734
N 0.0401858510 -2.7222097146 0.0379941141
C 0.0619598332 -2.0368643120 1.2007522610
F 0.1018253144 -2.8001554432 2.2826265389
C 0.0442413270 -0.6840117734 1.2485668924
H 0.8738363194 1.9101004008 0.5339845300
H -0.0584114929 1.9428751748 -0.9752701605
H -0.8855131254 1.8864039583 0.5935842041
H -0.0547493197 -0.1564496431 -2.1327299370
H 0.0547348150 -3.7332171365 0.0530916720
H 0.0627569544 -0.1744463494 2.2012308144