18

F -0.0382360703 -0.2093081333 0.4552555295
C -0.0546196377 1.1039333758 0.1525718976
F 1.2227353988 1.4791744058 -0.0327390159
F -0.6805220470 1.2279035046 -1.0303744327
C -0.7301214314 1.9245633396 1.2317952849
C -2.2216383852 1.5129142615 1.4146098692
C -2.4101034378 1.3281189507 2.9331676955
C -1.0351505210 0.8412450964 3.4124801228
C -0.0556683604 1.7219694016 2.6188333093
H -0.6421634294 2.9634266923 0.9037273815
H -2.9037906109 2.2495203015 0.9850107532
H -2.4096473416 0.5658227917 0.9004314422
H -2.6477473200 2.2894729743 3.4051521193
H -3.2244240495 0.6390275218 3.1729889662
H -0.8971547351 0.9222628568 4.4940343421
H -0.8957101298 -0.2103341277 3.1371723406
H 0.9461369639 1.2948282050 2.5358233837
H 0.0513970545 2.6952647416 3.1080127911