12

C -0.0349706599 1.4925657235 0.0387752298
C -0.0058911946 -0.0009057373 -0.0111846608
N -0.0298893481 -0.6318136698 -1.1341720454
C -0.0008645626 -2.0274503197 -1.1327925762
O -0.0188373319 -2.7116933896 -2.1076652228
O 0.0542572964 -2.6952739310 0.1083575519
N 0.0799215607 -2.0289577839 1.3089181251
C 0.0505717159 -0.7566503014 1.2292803353
F 0.0752600070 -0.0802277309 2.3657978519
H 0.8527903186 1.8724650091 0.5561742535
H -0.0760232387 1.8928912428 -0.9735743008
H -0.9023368827 1.8362986981 0.6129583186