23

C 0.0541924885 -0.4746614567 -2.4686915181
C -0.0926232016 -0.1249686010 -0.9848822442
C -1.1286767638 -0.9824909055 -0.2626370817
C -0.8248478392 -2.4809450675 0.0664331960
C -1.2964634938 -2.2798100445 1.5499647628
C -2.7155392143 -2.8044555194 1.8083158456
C -0.3309850623 -2.7079055133 2.6529546708
C -1.2996072652 -0.7644184131 1.2491207052
O -1.3015056050 0.2104313889 1.9471727487
H 0.8078124542 0.1559446923 -2.9504569275
H 0.3574940305 -1.5184090486 -2.6043855220
H -0.8917897222 -0.3331777404 -3.0031881147
H 0.8763787101 -0.2329981190 -0.4806800691
H -0.3767830930 0.9278624496 -0.8723232687
H -2.1033249799 -0.8824602942 -0.7590284868
H -1.3777489441 -3.2248821954 -0.5102740702
H 0.2436720166 -2.7057050810 0.0000026547
H -2.7150155105 -3.8997944496 1.8383565238
H -3.0962494562 -2.4364594333 2.7663017777
H -3.4150092907 -2.4917264802 1.0260122448
H 0.6823962228 -2.3402262334 2.4634176649
H -0.6534359121 -2.3112359246 3.6208353238
H -0.2864105689 -3.8001227402 2.7294173941