14

N 0.0849537150 1.4147209790 0.1443164293
C 0.0180964915 0.0248086078 0.0431817020
C -1.1426772882 -0.6866240623 0.0263371839
F -2.2922168042 0.0079913971 0.0254410172
C -1.2082874303 -2.1421455363 -0.0033547131
O -2.2604957052 -2.7708106414 -0.0207824522
C 0.1244822426 -2.7553970429 -0.0349199551
C 1.2566823145 -2.0190682993 -0.0175969851
N 1.2162152347 -0.6473038225 0.0124297115
H 0.6521274822 1.8460662978 -0.5772071017
H -0.8438352938 1.8170927310 0.1375537125
H 0.1736440614 -3.8362016244 -0.0738106148
H 2.2503982721 -2.4495168088 -0.0315476671
H 2.0562539377 -0.1208232250 0.1891024226