13

C -0.0163426540 1.4462678100 -0.0042801565
N 0.0009688510 -0.0125975390 -0.0317801648
C -0.1007083318 -0.7167531523 -1.1671308739
N -0.0891202149 -2.0200121645 -1.2306691722
C 0.0380910703 -2.6030032623 -0.0148877286
F 0.0508904148 -3.9150883543 -0.0683892623
N 0.1455329860 -2.0671955596 1.1544898101
C 0.1344106723 -0.6938827511 1.2327720887
O 0.2242768744 -0.0359004880 2.2395942852
H 0.9091316770 1.8168812522 0.4405169116
H -0.1204744712 1.8219400489 -1.0234656864
H -0.8486458692 1.7928093044 0.6112534418
H -0.1988151248 -0.1450174643 -2.0872459128