14

C 0.0389892780 1.5497217741 0.2125260364
C -0.0167106134 0.0728719375 -0.0367198207
C -1.1410037517 -0.6602133015 0.0408506478
F -2.3300627749 -0.1854441552 0.3425350467
O -1.2099350871 -1.9780887165 -0.1780383720
C -0.0467850530 -2.6827396273 -0.5153331804
N -0.0624798329 -3.9282264714 -0.7312601514
C 1.1500007990 -1.8467226318 -0.5881450154
N 1.1668118614 -0.5806995388 -0.3688181637
H 0.7250109635 1.7737488700 1.0360588348
H 0.4128270047 2.0739853420 -0.6731502370
H -0.9465315693 1.9467010187 0.4622833049
H -0.9986860740 -4.3197146241 -0.6281839142
H 2.0707112297 -2.3612777557 -0.8475482457