13

N -0.0060921731 1.4073511870 0.1494392961
C -0.0465644199 0.0322257484 0.0529969772
C -1.1791753141 -0.7223552214 0.0280920344
F -2.3714021510 -0.1120957313 0.0327674644
C -1.1390932280 -2.1423077810 -0.0042512665
C 0.0700790782 -2.7345012092 -0.0171582884
O 1.2209261984 -2.0258691844 -0.0109697384
C 1.2452757057 -0.6438874713 0.0101944553
O 2.3094972739 -0.0734370820 -0.0154282512
H 0.8866700692 1.7937028517 -0.1248534815
H -0.8120256932 1.8999933199 -0.2030450445
H -2.0523281524 -2.7204666299 -0.0147122076
H 0.2500373863 -3.8000917663 -0.0355502693