16

C 0.0266661920 1.5104874594 0.0437366824
C 0.0325659929 0.0025160466 0.0129815926
C -0.0176196539 -0.6970714675 -1.1940609805
C -0.0112437792 -2.0830442404 -1.2013452028
F -0.0602367509 -2.7299728491 -2.3755072930
C 0.0445670839 -2.8112634731 -0.0226130971
C 0.0948902503 -2.1260236009 1.1855331881
C 0.0891818467 -0.7323997881 1.2076189495
O 0.1407882986 -0.1302948351 2.4340441650
H 0.9322648793 1.9157359218 0.5151760304
H -0.0216396691 1.9227298565 -0.9663499615
H -0.8359385880 1.9071471127 0.5961526389
H -0.0621187854 -0.1641189019 -2.1376078253
H 0.0481860289 -3.8941253680 -0.0583290903
H 0.1392988430 -2.6591035797 2.1281212328
H 0.1315253910 0.8250043867 2.3232995107