16

C -0.0220796951 1.4928366880 0.0384767153
C 0.0341436136 -0.0105985074 -0.0139135214
C -0.0057825527 -0.6962560635 -1.2187219543
C 0.0491666755 -2.1021661801 -1.2224412096
N 0.0639410466 -2.8093727135 -2.4061364190
C 0.1404126262 -2.7500811353 0.0127875346
C 0.1721125641 -1.9471249955 1.1433272579
F 0.2576789619 -2.5562764251 2.3269784607
N 0.1230878939 -0.6370164043 1.1760617260
H 0.8725876900 1.8869329169 0.5310397188
H -0.0968083577 1.9327649281 -0.9587185504
H -0.8813800598 1.8186427808 0.6332668589
H -0.0748823535 -0.1529578571 -2.1551290072
H -0.3018507346 -2.3389109523 -3.2187611559
H -0.1894787684 -3.7836175540 -2.3569211698
H 0.1884871600 -3.8285307656 0.1004079654