15

N 0.0056812057 1.4289073387 -0.1558761707
C 0.0381792239 0.0389462471 -0.0678284711
C -1.1708105212 -0.6720597337 -0.1007843068
O -2.3429791317 0.0306617848 -0.1512771435
C -1.1468103758 -2.0592947022 -0.0711867748
F -2.3490098913 -2.6776191494 -0.0986448940
C 0.0271858356 -2.7898139192 -0.0076592190
C 1.2259124145 -2.0805026079 0.0288568477
C 1.2319944801 -0.6891073240 -0.0003694590
H 0.7889289994 1.8972810531 0.2748483703
H -0.8791723292 1.8345706910 0.1134010417
H -3.0663682603 -0.6071515434 -0.1451239309
H -0.0122731866 -3.8713722345 0.0130612733
H 2.1655220595 -2.6187099997 0.0807086902
H 2.1729108876 -0.1484797308 0.0243363566