15

C -0.0105706784 1.5325206183 0.0144081007
C 0.0068633052 0.0338709726 -0.0160899994
C 0.1617232731 -0.6797875618 -1.1506920698
F 0.3144485417 -0.1324953781 -2.3554412765
N 0.1801203831 -2.0447446969 -1.1977268214
C 0.0355952910 -2.7731689825 -0.0432023622
C -0.1254867159 -2.1540777040 1.1454367273
C -0.1531129667 -0.6933276687 1.2563952382
O -0.2978827930 -0.1013823697 2.3221913293
H 0.1156906482 1.9630825166 -0.9802864775
H -0.9525076594 1.8885906904 0.4437997291
H 0.7827965410 1.9041630903 0.6708059247
H 0.3012225595 -2.4894822367 -2.0927114923
H 0.0614999372 -3.8482486646 -0.1674573675
H -0.2392054566 -2.7311503953 2.0541190573