16

C 0.0289602854 1.4459945468 0.0841280115
N -0.0130363877 0.0158317944 -0.1495382502
C -1.2034573035 -0.6922034312 -0.0532330678
C -2.4602729404 -0.0719352717 -0.0389113319
N -3.6178492595 -0.7440374183 0.0043633131
C -3.5661084635 -2.0501664281 0.0440242489
F -4.7334936544 -2.6980004380 0.0904516998
C -2.3882715363 -2.7950387367 0.0454080322
C -1.1957727344 -2.0982936854 -0.0056065768
H 1.0683621888 1.7780277816 0.0417383374
H -0.5199213282 1.9797294373 -0.6994506243
H -0.3939610535 1.7438349135 1.0564261275
H 0.7910506604 -0.4857917994 0.1935934942
H -2.5453481910 1.0091442711 -0.0666004910
H -2.4211275633 -3.8767975056 0.0841721646
H -0.2503799088 -2.6331747804 -0.0132458071