12

C -0.0337204340 1.4305536994 -0.0249677080
N -0.0085743875 -0.0293550188 -0.0007142298
N -0.0519377036 -0.6416324650 -1.1667559244
N -0.0328271160 -1.9257057711 -1.2109088348
C 0.0332641375 -2.5621292779 0.0013462278
F 0.0487550457 -3.8639701047 -0.1239660072
N 0.0793096646 -2.0666893366 1.1852668708
C 0.0605851470 -0.6909592982 1.2711027998
O 0.0958278703 -0.0341001806 2.2785613723
H 0.8677825997 1.8167204524 0.4548546831
H -0.0863132346 1.7408683393 -1.0670865288
H -0.9000754192 1.7876336317 0.5353841492