16

C 0.0811410892 1.4451958693 0.0336817002
N -0.0487791248 0.0153773542 -0.1063846317
C -1.2332717153 -0.6627845724 -0.0422486147
N -1.1271972665 -2.0040611098 -0.0032118636
C -2.2527748997 -2.7132581827 0.0356519777
C -3.5338479455 -2.1713146582 0.0419383624
C -3.6086994315 -0.7846750404 0.0080169353
F -4.8030813810 -0.1914655733 0.0170576880
C -2.4744742553 0.0023562521 -0.0323417777
H 1.1391658579 1.7089268076 -0.0158784398
H -0.4309874869 1.9748874584 -0.7792848996
H -0.3210874683 1.8182609795 0.9871402969
H 0.7624654169 -0.5668101676 0.0211561484
H -2.1276995357 -3.7934408820 0.0658625295
H -4.4249698008 -2.7830640067 0.0759015290
H -2.5606646028 1.0798866720 -0.0571083503