11

F 0.0904093581 0.0497258887 0.0023812491
C -0.0393748153 1.3517350201 0.0108941770
C -1.2224367438 1.9971960377 0.0306201379
F -2.3518132940 1.3036410605 0.0426311416
C -1.2838384915 3.4624197173 0.0391919290
O -2.3283738365 4.0886145372 0.0563403470
C 0.0566788255 4.0668195880 0.0234049199
C 1.1682703761 3.3201013932 0.0041763107
O 1.1519850277 1.9586174572 -0.0024987210
H 0.1295627132 5.1469940532 0.0277663167
H 2.1846559004 3.6885228169 -0.0081411878