11

F 0.0365437943 0.0491859335 0.0030643711
C -0.0085125167 1.3681743413 0.0104662494
C -1.2150767477 2.0022771826 0.0305189504
F -2.3568441377 1.3316405142 0.0429661564
C -1.2847978312 3.4489526329 0.0389120259
O -2.2750395777 4.1467969953 0.0562474669
N 0.0183146930 4.0092537060 0.0236392602
C 1.1607018184 3.2862050064 0.0040225663
N 1.1911084698 1.9900163711 -0.0030493544
H 0.0469826299 5.0211293260 0.0284285558
H 2.0899398258 3.8474674408 -0.0060455482