10

F 0.0543305601 0.0463611768 0.0030196569
C -0.0439012720 1.3471378350 0.0108945804
C -1.2423288822 2.0004792498 0.0308619167
F -2.4025088482 1.3476671598 0.0437629831
C -1.1803585608 3.4043608318 0.0370102262
N -0.0778611080 4.1102869953 0.0251706736
C 1.1309856948 3.4980867332 0.0052857304
O 2.2279924230 3.9401308802 -0.0078869021
O 1.0862561860 1.9756235905 -0.0017097142
H -2.1210205628 3.9536435877 0.0528607189