20

C -0.0133355970 1.5581033184 -0.0093270674
C 0.0371346395 0.0251796355 0.0431395364
C 0.8724327731 -0.4467541618 1.2419466242
C -1.3907274730 -0.5491857375 0.0549264791
C -1.4566025160 -2.0762597443 -0.0593000970
C -2.8760322914 -2.5939218180 -0.1493122598
F -3.5152027187 -2.1195039185 -1.2329794582
F -2.9034070155 -3.9347135276 -0.2276196320
F -3.6048632017 -2.2427364406 0.9246734300
H 0.9933677849 1.9851803151 -0.0603391709
H -0.5733151282 1.9103836735 -0.8817723040
H -0.5007931593 1.9637801458 0.8852409316
H 0.5310578416 -0.3272745121 -0.8743003280
H 0.4010573630 -0.1498815632 2.1866937407
H 0.9998668490 -1.5334220431 1.2592319039
H 1.8722613119 -0.0017033205 1.2171864429
H -1.9021836636 -0.2363213304 0.9737563665
H -1.9561672424 -0.1151851734 -0.7775098708
H -0.9308016754 -2.4251290703 -0.9546504512
H -0.9953332907 -2.5659903768 0.8028688939