14

O 0.1582469038 1.3994494531 -0.2327836316
C 0.0843159734 0.0121169060 -0.0111424010
C -1.3756174630 -0.5246925529 0.0314764590
C -1.4069309862 -1.9741363210 -0.1140740486
C -1.3830185206 -3.1676903898 -0.2413611108
C -2.0826286689 -0.1096209134 1.3255321616
F -2.0627843838 1.2358621641 1.4689629991
F -3.3610929395 -0.4881042690 1.3405970173
F -1.4835926069 -0.6254864668 2.4044531991
H -0.2436854721 1.8475033383 0.5181346551
H 0.5878573280 -0.4663474015 -0.8537098213
H 0.5998657821 -0.2991090551 0.9081399667
H -1.9269563752 -0.0489019258 -0.7882771395
H -1.3791984609 -4.2239910663 -0.3540166552