13

C -0.2205955486 1.5427514386 0.0405856069
C 0.0177323777 0.0594722694 0.0002636072
N 0.0986881366 -0.4707672155 -1.1768075265
O 0.3194031980 -1.8451821918 -1.2479097721
C 0.4584169061 -2.6848931924 -0.1632047254
O 0.6459598041 -3.8561963272 -0.3359613971
C 0.3549613787 -2.0123945014 1.1355718842
F 0.4836114589 -2.7889874019 2.1904906923
C 0.1429086320 -0.6914772111 1.2250017298
H 0.5944913079 2.0496059398 0.5683456410
H -0.2876472879 1.9368176726 -0.9738149800
H -1.1497077470 1.7691817324 0.5747000975
H 0.0670783735 -0.1981911613 2.1872493422