11

F -0.0256682310 0.0590205785 0.0038975579
C -0.0341454331 1.3756337463 0.0104703360
C -1.2510664851 2.0643488906 0.0306531047
N -1.2314870481 3.3831901989 0.0372430007
C -0.0117051707 3.9480946484 0.0236293823
C 0.0044407119 5.4534575686 0.0313331988
O 0.9999257499 6.1234831966 0.0215647618
N 1.1563529277 3.3031034814 0.0045609461
N 1.1369467915 1.9746734748 -0.0021498349
H -2.2034611349 1.5417853326 0.0409746191
H -1.0186360082 5.8819706734 0.0474273575