13

N -0.0163897523 1.3977684623 -0.1438839936
C -0.0047963211 0.0227650584 -0.0558432710
C -1.1932152320 -0.7151894211 -0.0289616940
C -1.0884984342 -2.0979997201 0.0065781820
F -2.2209724892 -2.8002966024 0.0334018130
N 0.0234965481 -2.7983074990 0.0202834821
C 1.1559335814 -2.0789203429 -0.0048720999
C 1.2043477487 -0.6978871104 -0.0420565667
H 0.8230918100 1.8787292302 0.1376456835
H -0.8636825474 1.8668884898 0.1348975383
H -2.1668590523 -0.2400359999 -0.0380943716
H 2.0795312199 -2.6519389934 0.0079093661
H 2.1570830503 -0.1801909914 -0.0635822480