14

N 0.0265864801 1.3818598011 0.1293301774
C -0.0103252381 -0.0034119695 0.0509401808
C -1.2005727829 -0.7360967657 0.0434603885
N -1.2109235128 -2.0706453457 0.0297872931
C -0.0464743518 -2.7097505870 0.0378862101
N -0.0179639920 -4.0951290039 0.1017613604
C 1.1338592338 -1.9474460660 0.0314173032
F 2.3009976455 -2.6002551453 -0.0011173274
N 1.1703940938 -0.6465870418 0.0311512103
H 0.9079721665 1.7737479940 -0.1698829948
H -0.7705161235 1.8614018318 -0.2613508048
H -2.1652559113 -0.2359835687 0.0432323621
H -0.8793917919 -4.5227591801 -0.2069770702
H 0.8085813944 -4.5209623434 -0.2903057688