12

C -0.0344934044 1.5330962451 0.0496698092
C -0.0110170123 0.0376850326 -0.0022590800
N -0.0496416472 -0.5524482748 -1.1489935905
O -0.0266744281 -1.9226991959 -1.1624179511
C 0.0365606338 -2.7131265208 0.0052557217
O 0.0507862339 -3.8939374099 -0.1380571478
N 0.0770581051 -2.0463532084 1.2269087778
C 0.0539172999 -0.7779786187 1.1956893824
F 0.0910022957 -0.1137701167 2.3346108879
H 0.8622896632 1.9169155424 0.5462984160
H -0.0842833430 1.9317601335 -0.9641266556
H -0.8987171867 1.8866779417 0.6208785601