15

C 0.1150388856 1.3966498586 0.0075143829
N 0.0290681306 -0.0524623568 0.0043655551
C -1.1253909473 -0.5978971250 0.0114170355
N -1.1798246374 -2.0054358444 0.0084305803
C -2.3408037124 -2.6923014839 0.0150365467
F -2.2002774194 -4.0063970407 0.0106796275
C -3.5404664640 -2.0597836663 0.0252803236
N -3.5746722247 -0.6872861335 0.0291068955
C -2.4694447697 -0.0101242079 0.0228399848
H 1.1687981517 1.6869572546 -0.0001640999
H -0.3576913558 1.8548344253 -0.8742290482
H -0.3434312374 1.8500568699 0.8992031619
H -0.2956470091 -2.4965258386 0.0007105990
H -4.4712070729 -2.6085295432 0.0305711751
H -2.5433024376 1.0727454920 0.0262949804