16

C 0.0000941287 1.4922047216 0.0256897236
C 0.0121595526 0.0370738277 0.0005115319
C 0.0322487904 -1.1654951154 -0.0244035954
C 0.0215830762 -2.6251608716 -0.0456175877
C -1.4012667321 -3.2015079859 0.0938429187
C 0.6915728406 -3.1516983249 -1.3193603305
F 1.9414264567 -2.6920089918 -1.4459861999
F 0.7580907807 -4.4944907630 -1.2930525423
F 0.0141571270 -2.8045900800 -2.4211796558
H 0.8808108168 1.8879509033 0.5428919471
H -0.0025860971 1.9036715710 -0.9894039565
H -0.8883882249 1.8729890312 0.5409664865
H 0.6425916194 -3.0052924365 0.7758145595
H -1.3734382008 -4.2935247589 0.0894524212
H -1.8447492308 -2.8620383803 1.0316846520
H -2.0311766135 -2.8599205865 -0.7304015425