16

C -0.1996917479 1.4663722089 -0.1035815086
C -0.4030299032 -0.0250508524 -0.3455904208
N -1.1605428012 -0.6270299346 0.7522251273
C -1.3756332583 -2.0558557300 0.6451336596
C -2.6728077885 -2.3813493830 -0.0858983070
F -2.6930192453 -1.8776150634 -1.3326949193
F -2.8187865651 -3.7140992165 -0.1914798107
F -3.7436327446 -1.9054349708 0.5554743293
H 0.3497992356 1.9205492302 -0.9330448069
H -1.1619674915 1.9755599976 -0.0008521720
H 0.3768980659 1.6440339767 0.8121084069
H -0.9689518987 -0.1777986721 -1.2689806080
H 0.5763531030 -0.5187286695 -0.4916119683
H -0.7124127157 -0.4129828067 1.6344159533
H -0.5681639138 -2.5953291004 0.1221323957
H -1.4741300705 -2.4951404839 1.6417226496