11

F 0.0833111578 0.0658877297 0.0021300520
C -0.0681535464 1.3694273968 0.0112746367
C -1.2760955619 1.9756700782 0.0310337998
C -1.2549214396 3.3990019505 0.0382759934
C -0.0899258836 4.0997182140 0.0261629542
C 1.1889927625 3.4388881791 0.0058135303
O 2.2948233073 3.8886595968 -0.0078918605
O 1.0882428848 1.9904222460 -0.0010089357
H -2.1843952332 1.3929954010 0.0402009939
H -2.1996518742 3.9327801935 0.0537648797
H -0.0608074934 5.1809017942 0.0311619064