12

F -0.5584922352 0.3237249614 -0.5117630798
C 0.0617992116 1.3809804978 0.0288815503
F 1.3096808661 1.0047339367 0.3365361636
F 0.1445554739 2.3276399678 -0.9155131227
C -0.6501635782 1.8707589563 1.2065898529
C -1.2346922608 2.2588857164 2.1812837648
C -1.9436373354 2.7807579663 3.3364080035
C -2.3752289717 4.2442502828 3.1590881245
O -2.4227703571 5.0228210833 4.0690543853
H -2.8617852085 2.1974624710 3.5019212222
H -1.3474415583 2.7048838061 4.2510684271
H -2.6631776265 4.5200919441 2.1228984182