11

F 0.5029650578 0.2046294689 0.2538866761
C -0.0460533431 1.4084502347 0.0481881006
F 0.9394564751 2.2413798459 -0.3092036845
F -0.8994972968 1.3096161510 -0.9707057754
C -0.7371645413 1.8999118928 1.2900193720
N -2.0277923621 2.1825723292 1.3144987149
N -2.1942237977 2.5723466245 2.5956096780
C -1.0243800792 2.5076388290 3.2658857247
N -0.0716467266 2.0818156240 2.4623750559
H -3.1062319040 2.8562476668 2.9162554583
H -0.9189704619 2.7729531232 4.3068707795