19

C -0.2188006720 1.2774044519 -0.0000054769
O 0.1785788968 -0.0709436709 0.0686094527
C 0.5797567821 -0.5872835552 -1.1808016062
C 0.9999238794 -2.0397237014 -0.9649363504
C 1.3942605506 -2.7289075116 -2.2482988387
C 0.9519898612 -4.1095436626 -2.5560495937
O 0.3466561646 -3.0049803047 -3.2019455962
C 2.6655850326 -2.3061688221 -2.9236650045
O 3.5062536095 -1.6080999560 -2.4176426686
H 0.5984423821 1.9270713689 -0.3512137716
H -1.0796663285 1.4166953151 -0.6733627913
H -0.5062862202 1.5854656948 1.0081937200
H -0.2492369785 -0.5391719105 -1.9064427500
H 1.4180729450 -0.0028960621 -1.5911564553
H 1.8496352088 -2.0658346366 -0.2754613783
H 0.1710609541 -2.5789103054 -0.4974307371
H 1.5584354844 -4.7533357851 -3.1926543879
H 0.3442789933 -4.6230942915 -1.8127700406
H 2.7623172147 -2.7031073051 -3.9587942055