12

C -0.2091108856 1.5247003808 0.0713474455
C 0.0233384464 0.0489600216 -0.0195310266
N 0.0786946257 -0.4695524554 -1.2004180012
O 0.2969980686 -1.8520770891 -1.2707466945
C 0.4482571659 -2.6442792254 -0.1685879862
O 0.6332506803 -3.8215718202 -0.2690254366
C 0.3555725058 -1.8802650560 1.1003862121
F 0.4953186610 -2.5998788867 2.1831028841
N 0.1590256161 -0.6308378791 1.1881321579
H 0.6207426016 1.9977600215 0.6055509727
H -0.3011286552 1.9584081529 -0.9240813851
H -1.1196409205 1.7211202950 0.6459403779