17

C 0.0446040139 1.5459560335 0.1521073248
C -0.0686515504 0.0543143914 0.0301522322
C -1.2079715517 -0.5970410343 -0.2302134102
C -1.2770860425 -2.0901970713 -0.3437388947
C 0.0440702582 -2.8143394035 -0.1426946559
O 0.1369552519 -4.0173503276 -0.2072006954
C 1.2998497020 -1.9945913607 0.1515186090
N 2.4435315164 -2.5285578128 0.3325644357
N 1.1350899984 -0.6290018828 0.2128387127
H 0.7452582595 1.9503567521 -0.5886530234
H -0.9256867780 2.0202902969 -0.0000010323
H 0.4167487587 1.8337129581 1.1430101712
H -2.1209713923 -0.0307525949 -0.3655508848
H -1.9845137266 -2.5213749880 0.3798677758
H -1.6626805068 -2.4068986275 -1.3239991960
H 2.3339396547 -3.5410162990 0.2430301667
H 1.9751778646 -0.1048834894 0.4079134245