14

O 0.0757835463 1.1343966148 -0.7919735743
C -0.0205931818 0.1423572315 0.2212273966
C -1.3648032143 -0.4205168995 0.2281173569
C -2.4670852741 -0.8993146226 0.2493374201
C -3.8033416331 -1.4720693709 0.2688804764
C -3.8456003261 -2.9156546709 -0.2239706868
F -3.0889176219 -3.7193212867 0.5322260631
F -5.1058955107 -3.3766276460 -0.1743744766
F -3.4218375161 -3.0233481086 -1.4870025111
H 0.9775964152 1.4710104045 -0.7792990406
H 0.7027042844 -0.6727172017 0.0564482217
H 0.1960897899 0.5634463238 1.2166148583
H -4.2237869331 -1.4664578560 1.2806059319
H -4.4837547347 -0.8953441918 -0.3672239956