10

C -0.2208087225 1.4691956704 0.0273301097
C 0.2092809580 0.0251575599 0.0613517601
O 0.6141464305 -0.5639512292 1.0257409687
C 0.0975183980 -0.7177999652 -1.3008419277
F -1.1742734093 -0.6896628799 -1.7317464095
F 0.8529938626 -0.0968213797 -2.2214729949
F 0.4880721184 -1.9777402173 -1.2093239902
H 0.3833071000 2.0187133562 -0.7018692857
H -1.2617277363 1.5380955232 -0.3049286465
H -0.1102567496 1.9091343815 1.0181127361