12

N 0.2018749612 0.7875217178 -0.5257603507
C -0.1558781264 0.2439262455 0.6705323510
O 0.3278179117 0.5810619293 1.7297225263
C -1.2881573329 -0.7938181334 0.6116234009
C -1.0810598440 -1.9288682720 -0.3707961024
F 0.0895554625 -2.5476850184 -0.1829258055
F -2.0516818112 -2.8431305239 -0.2610513713
F -1.0977581877 -1.4939579818 -1.6549344859
H 0.9839919323 1.4222432168 -0.5299304318
H -0.1116736233 0.3960622380 -1.3972022634
H -1.3807449033 -1.2206528667 1.6102884418
H -2.2315068589 -0.3021087513 0.3549536311