11

F -0.0026473366 0.0264378682 0.0031869487
C -0.0269549866 1.3583330731 0.0108659769
C -1.2442641159 2.0211109955 0.0309321004
C -1.1872770443 3.4061110579 0.0377934023
F -2.3172623321 4.1113500669 0.0569231112
C 0.0374346694 4.0653534261 0.0249250224
N 1.1935200039 3.4027532415 0.0056671724
C 1.1678395529 2.0703742820 -0.0013408068
H -2.1861030228 1.4873148058 0.0406914273
H 0.0695773967 5.1506744235 0.0304722915
H 2.1153233354 1.5402671796 -0.0170447263