15

C -0.0288114475 1.5269481566 0.0259809239
C -0.0022373252 0.0223225087 -0.0158330610
C -0.0226300035 -0.6957155926 -1.2115859651
C 0.0034595205 -2.0841816912 -1.1943093572
F -0.0171079237 -2.7452980755 -2.3587044375
C 0.0500208746 -2.8011032561 -0.0088699331
C 0.0708610713 -2.0975145955 1.1933218260
C 0.0446541147 -0.7130165388 1.1692668615
F 0.0649622685 -0.0409059235 2.3314259660
H 0.8569178021 1.9242308675 0.5327523164
H -0.0647754438 1.9460990160 -0.9817968604
H -0.8988297147 1.8918530803 0.5819327973
H -0.0589479031 -0.1796831044 -2.1645233435
H 0.0693243556 -3.8837159533 -0.0322374776
H 0.1071452543 -2.6107015282 2.1468358442