12

N 0.0311590159 1.3744315713 0.1525732951
C -0.0215602442 0.0188409132 0.0581558909
C -1.1773839919 -0.7086084395 0.0288945681
F -2.3349985729 -0.0338349913 0.0375812002
C -1.1493129791 -2.1360774506 -0.0137382308
O -2.1013166464 -2.9011671873 -0.0469373642
C 0.2571769499 -2.6238162010 -0.0213567566
N 1.3423488298 -1.9396246275 -0.0038559611
O 1.1981594329 -0.5491544607 0.0354810900
H 0.8900311949 1.8158672048 -0.1366489589
H -0.8219269905 1.8659839081 -0.0612224088
H 0.4075522717 -3.7000600096 -0.0506932739