15

C -0.0133827040 1.5586880118 0.0206899877
C -0.0132862905 0.0556709252 0.0100749997
C -1.1283204834 -0.7043852552 -0.1476773744
F -2.3394573383 -0.1987992529 -0.3095700371
N -1.0902931720 -2.0489165153 -0.1520623314
C 0.1090476791 -2.7839725456 0.0066137490
N 0.0173117086 -4.0558582181 -0.0149144297
N 1.2647096331 -2.0277406635 0.1698787222
C 1.1751819665 -0.7307340258 0.1668764411
H 0.6112674553 1.9662770985 -0.7821196401
H -1.0239624546 1.9494231753 -0.1138994584
H 0.3735812977 1.9538319881 0.9666932055
H -1.9415567819 -2.5795959584 -0.2721183655
H 0.9482067751 -4.4489445936 0.1094844564
H 2.1133701093 -0.1882424304 0.2989521450