12

N 0.0024024735 1.2965993542 0.0095672301
N 1.2611486579 1.8389301771 0.0000010116
C 2.1063583237 0.8105789064 -0.0139411730
C 1.4141458639 -0.4276544029 -0.0137959920
C 0.0898775256 -0.0451099089 0.0014247794
O -0.7831963142 -1.0621827270 0.0045853546
C 0.0398821015 -2.1923240660 -0.0097281366
C 1.3585313207 -1.8702548854 -0.0210671615
H -0.7993816768 1.9012192354 0.0208062231
H 3.1674380010 1.0099431942 -0.0233880413
H -0.4936409696 -3.1276498849 -0.0095076200
H 2.1715642428 -2.5789843521 -0.0329813044